4
step: 1  E_total = -108.267057083  
B        -0.01426        -0.00104        -0.00068
H         1.38941         0.00186         0.00219
H        -0.61970         1.04148         0.00255
H        -0.61680        -1.03215         0.00255
4
step: 2  E_total = -108.247794787  
B        -0.01346        -0.00249        -0.00163
H         1.38652         0.00447         0.00524
H        -0.62453         1.05409         0.00612
H        -0.61768        -1.03190         0.00612
4
step: 3  E_total = -108.274925856  
B        -0.01228        -0.00402        -0.00266
H         1.37592         0.00731         0.00854
H        -0.62757         1.06455         0.00999
H        -0.61669        -1.02877         0.01000
4
step: 4  E_total = -108.342556481  
B        -0.01098        -0.00529        -0.00355
H         1.35997         0.00975         0.01137
H        -0.62811         1.07046         0.01334
H        -0.61408        -1.02349         0.01335
4
step: 5  E_total = -108.434382248  
B        -0.00976        -0.00616        -0.00420
H         1.34162         0.01156         0.01344
H        -0.62644         1.07172         0.01580
H        -0.61051        -1.01718         0.01584
4
step: 6  E_total = -108.536399718  
B        -0.00867        -0.00667        -0.00464
H         1.32270         0.01277         0.01479
H        -0.62320         1.06938         0.01744
H        -0.60652        -1.01060         0.01750
4
step: 7  E_total = -108.639959951  
B        -0.00771        -0.00689        -0.00490
H         1.30402         0.01351         0.01558
H        -0.61894         1.06454         0.01844
H        -0.60242        -1.00414         0.01853
4
step: 8  E_total = -108.740344696  
B        -0.00684        -0.00690        -0.00504
H         1.28582         0.01391         0.01595
H        -0.61404         1.05803         0.01896
H        -0.59837        -0.99796         0.01910
4
step: 9  E_total = -108.835047251  
B        -0.00606        -0.00675        -0.00508
H         1.26816         0.01407         0.01603
H        -0.60876         1.05045         0.01914
H        -0.59443        -0.99212         0.01933
4
step: 10  E_total = -108.922691733  
B        -0.00532        -0.00649        -0.00506
H         1.25097         0.01406         0.01590
H        -0.60324         1.04218         0.01908
H        -0.59064        -0.98663         0.01934
