4
step: 1  E_total = -108.319022889  
B        -0.01337         0.00170         0.00089
H         1.37655        -0.00098        -0.00286
H        -0.61223         1.02044        -0.00334
H        -0.62097        -1.03772        -0.00334
4
step: 2  E_total = -108.319022889  
B        -0.01186         0.00335         0.00177
H         1.36076        -0.00194        -0.00568
H        -0.60817         1.00849        -0.00664
H        -0.62535        -1.04252        -0.00664
4
step: 3  E_total = -108.319022889  
B        -0.01008         0.00491         0.00263
H         1.33826        -0.00289        -0.00843
H        -0.60259         0.99450        -0.00988
H        -0.62761        -1.04424        -0.00987
4
step: 4  E_total = -108.319022889  
B        -0.00801         0.00631         0.00346
H         1.30934        -0.00382        -0.01107
H        -0.59572         0.97891        -0.01302
H        -0.62768        -1.04281        -0.01299
4
step: 5  E_total = -108.319022889  
B        -0.00569         0.00752         0.00425
H         1.27449        -0.00471        -0.01355
H        -0.58786         0.96225        -0.01603
H        -0.62557        -1.03822        -0.01596
4
step: 6  E_total = -108.319022889  
B        -0.00314         0.00849         0.00499
H         1.23436        -0.00558        -0.01585
H        -0.57939         0.94513        -0.01890
H        -0.62131        -1.03059        -0.01875
4
step: 7  E_total = -108.319022889  
B        -0.00039         0.00917         0.00568
H         1.18988        -0.00642        -0.01793
H        -0.57071         0.92823        -0.02160
H        -0.61502        -1.02011        -0.02133
4
step: 8  E_total = -108.319022889  
B         0.00250         0.00951         0.00630
H         1.14231        -0.00724        -0.01978
H        -0.56228         0.91227        -0.02413
H        -0.60688        -1.00707        -0.02366
4
step: 9  E_total = -108.319022889  
B         0.00544         0.00950         0.00686
H         1.09336        -0.00806        -0.02138
H        -0.55459         0.89801        -0.02647
H        -0.59714        -0.99188        -0.02571
4
step: 10  E_total = -108.319022889  
B         0.00831         0.00912         0.00735
H         1.04517        -0.00892        -0.02274
H        -0.54812         0.88614        -0.02863
H        -0.58614        -0.97507        -0.02747
