4
step: 1  E_total = -108.339791171  
B        -0.01464        -0.00029         0.00217
H         1.38520         0.00387        -0.00697
H        -0.61123         1.02375        -0.00813
H        -0.61691        -1.02446        -0.00813
4
step: 2  E_total = -108.398312518  
B        -0.01440        -0.00056         0.00412
H         1.37829         0.00736        -0.01324
H        -0.60651         1.01569        -0.01547
H        -0.61730        -1.01699        -0.01547
4
step: 3  E_total = -108.479166707  
B        -0.01391        -0.00078         0.00564
H         1.36651         0.01008        -0.01809
H        -0.60129         1.00724        -0.02119
H        -0.61601        -1.00892        -0.02119
4
step: 4  E_total = -108.569679695  
B        -0.01325        -0.00095         0.00672
H         1.35175         0.01201        -0.02152
H        -0.59609         0.99922        -0.02529
H        -0.61359        -1.00102        -0.02528
4
step: 5  E_total = -108.662197124  
B        -0.01246        -0.00108         0.00745
H         1.33525         0.01330        -0.02377
H        -0.59117         0.99190        -0.02806
H        -0.61046        -0.99362        -0.02805
4
step: 6  E_total = -108.752582559  
B        -0.01158        -0.00118         0.00790
H         1.31777         0.01410        -0.02511
H        -0.58659         0.98536        -0.02984
H        -0.60693        -0.98681        -0.02980
4
step: 7  E_total = -108.838637608  
B        -0.01064        -0.00126         0.00816
H         1.29973         0.01454        -0.02580
H        -0.58238         0.97956        -0.03087
H        -0.60322        -0.98061        -0.03082
4
step: 8  E_total = -108.919138478  
B        -0.00964        -0.00132         0.00827
H         1.28138         0.01471        -0.02599
H        -0.57850         0.97444        -0.03138
H        -0.59945        -0.97498        -0.03130
4
step: 9  E_total = -108.993331932  
B        -0.00860        -0.00137         0.00827
H         1.26289         0.01468        -0.02581
H        -0.57494         0.96994        -0.03148
H        -0.59569        -0.96989        -0.03139
4
step: 10  E_total = -109.060686557  
B        -0.00752        -0.00142         0.00819
H         1.24434         0.01450        -0.02534
H        -0.57168         0.96599        -0.03130
H        -0.59201        -0.96529        -0.03117
