4
step: 1  E_total = -108.916484129  
B        -0.00068        -0.00019         0.00157
H         1.19650         0.01220        -0.00668
H        -0.58312         1.02330        -0.00625
H        -0.60493        -1.03532        -0.00573
4
step: 2  E_total = -108.921179573  
B        -0.00154        -0.00008         0.00346
H         1.18961         0.02457        -0.01390
H        -0.56568         1.01372        -0.01307
H        -0.60813        -1.03746        -0.01131
4
step: 3  E_total = -108.929740236  
B        -0.00233         0.00017         0.00525
H         1.18065         0.03520        -0.01974
H        -0.54752         1.00191        -0.02035
H        -0.60913        -1.03688        -0.01744
4
step: 4  E_total = -108.915766075  
B        -0.00293        -0.00001         0.00683
H         1.16917         0.04514        -0.02554
H        -0.52905         0.98699        -0.02677
H        -0.60941        -1.03302        -0.02337
4
step: 5  E_total = -108.890333343  
B        -0.00354        -0.00018         0.00853
H         1.15597         0.05547        -0.03107
H        -0.51046         0.97021        -0.03307
H        -0.60756        -1.02568        -0.02953
4
step: 6  E_total = -108.906798557  
B        -0.00399        -0.00043         0.01023
H         1.14148         0.06489        -0.03658
H        -0.49243         0.95288        -0.03977
H        -0.60396        -1.01630        -0.03544
4
step: 7  E_total = -108.901849995  
B        -0.00447        -0.00089         0.01182
H         1.12522         0.07358        -0.04269
H        -0.47606         0.93816        -0.04517
H        -0.59949        -1.00430        -0.04119
4
step: 8  E_total = -108.895097501  
B        -0.00462        -0.00197         0.01311
H         1.10798         0.08126        -0.04757
H        -0.46080         0.92657        -0.04965
H        -0.59293        -0.98979        -0.04587
4
step: 9  E_total = -108.860379416  
B        -0.00483        -0.00334         0.01407
H         1.08936         0.08796        -0.05176
H        -0.44776         0.91685        -0.05460
H        -0.58487        -0.97280        -0.05044
4
step: 10  E_total = -108.855375991  
B        -0.00468        -0.00508         0.01522
H         1.07068         0.09429        -0.05678
H        -0.43793         0.91156        -0.05940
H        -0.57578        -0.95538        -0.05437
