4
step: 1  T=      393.362K  Ek=     0.203384  Ep=    -1.361220  E_gap=    11.605947  Err=       0.0000000000000000  time_stamp= 1672955483.0263
 O        -0.60931         0.00011        -0.00034         0.00215         0.00027        -0.00086        -0.86773        -0.00883         0.02605        -0.27521
 C         0.61110        -0.00022         0.00139         0.00337        -0.00055         0.00346         0.68791         0.01469        -0.08164         0.13945
H         1.19403         0.94599        -0.00555        -0.03922         0.01486        -0.01381         0.09389        -0.05299         0.02780         0.06770
H         1.19573        -0.94510        -0.00555        -0.03501        -0.01265        -0.01381         0.08593         0.04712         0.02779         0.06806
4
step: 2  T=      381.673K  Ek=     0.197340  Ep=    -1.355142  E_gap=    11.616142  Err=       0.0000000000000000  time_stamp= 1672955483.3749
 O        -0.60849         0.00022        -0.00068         0.00193         0.00027        -0.00085        -0.97049        -0.01793         0.05306        -0.27779
 C         0.61249        -0.00044         0.00277         0.00355        -0.00054         0.00342         0.45008         0.03066        -0.16117         0.13816
H         1.17842         0.95189        -0.01105        -0.03853         0.01475        -0.01366         0.26785        -0.00755         0.05409         0.06947
H         1.18179        -0.95012        -0.01105        -0.03436        -0.01257        -0.01366         0.25255        -0.00518         0.05403         0.07016
4
step: 3  T=      360.719K  Ek=     0.186506  Ep=    -1.344250  E_gap=    11.622979  Err=       0.0000000000000000  time_stamp= 1672955483.7439
 O        -0.60776         0.00033        -0.00102         0.00168         0.00026        -0.00083        -1.05465        -0.02727         0.08047        -0.28039
 C         0.61394        -0.00065         0.00412         0.00366        -0.00053         0.00336         0.21123         0.04773        -0.23773         0.13667
H         1.16321         0.95778        -0.01647        -0.03719         0.01479        -0.01340         0.43275         0.03232         0.07872         0.07137
H         1.16824        -0.95516        -0.01647        -0.03309        -0.01268        -0.01340         0.41067        -0.05277         0.07854         0.07234
4
step: 4  T=      332.034K  Ek=     0.171675  Ep=    -1.329345  E_gap=    11.626435  Err=       0.0000000000000000  time_stamp= 1672955484.1064
 O        -0.60714         0.00043        -0.00135         0.00142         0.00026        -0.00081        -1.11861        -0.03675         0.10803        -0.28296
 C         0.61541        -0.00086         0.00545         0.00369        -0.00051         0.00327        -0.02031         0.06553        -0.31129         0.13498
H         1.14867         0.96373        -0.02177        -0.03524         0.01497        -0.01306         0.58370         0.06069         0.10181         0.07338
H         1.15532        -0.96027        -0.02178        -0.03124        -0.01296        -0.01306         0.55522        -0.08947         0.10144         0.07460
4
step: 5  T=      297.638K  Ek=     0.153891  Ep=    -1.311482  E_gap=    11.626639  Err=       0.0000000000000000  time_stamp= 1672955484.4710
 O        -0.60663         0.00053        -0.00167         0.00114         0.00025        -0.00078        -1.16093        -0.04623         0.13547        -0.28546
 C         0.61689        -0.00106         0.00674         0.00365        -0.00049         0.00316        -0.23753         0.08355        -0.38205         0.13308
H         1.13502         0.96976        -0.02692        -0.03275         0.01523        -0.01263         0.71662         0.07242         0.12362         0.07547
H         1.14325        -0.96552        -0.02692        -0.02887        -0.01334        -0.01263         0.68185        -0.10974         0.12296         0.07691
4
step: 6  T=      259.768K  Ek=     0.134311  Ep=    -1.291825  E_gap=    11.623854  Err=       0.0000000000000000  time_stamp= 1672955484.8356
 O        -0.60623         0.00063        -0.00197         0.00086         0.00023        -0.00074        -1.18053        -0.05558         0.16245        -0.28785
 C         0.61833        -0.00125         0.00798         0.00354        -0.00046         0.00302        -0.43523         0.10112        -0.45035         0.13100
H         1.12246         0.97591        -0.03188        -0.02979         0.01549        -0.01211         0.82850         0.06371         0.14444         0.07761
H         1.13222        -0.97094        -0.03188        -0.02606        -0.01376        -0.01212         0.78726        -0.10925         0.14345         0.07924
4
step: 7  T=      220.605K  Ek=     0.114061  Ep=    -1.271511  E_gap=    11.618456  Err=       0.0000000000000000  time_stamp= 1672955485.2142
 O        -0.60594         0.00072        -0.00226         0.00058         0.00022        -0.00070        -1.17684        -0.06465         0.18862        -0.29009
 C         0.61972        -0.00143         0.00916         0.00337        -0.00042         0.00287        -0.61011         0.11754        -0.51651         0.12877
H         1.11118         0.98215        -0.03661        -0.02645         0.01567        -0.01152         0.91755         0.03247         0.16463         0.07977
H         1.12240        -0.97653        -0.03662        -0.02289        -0.01413        -0.01153         0.86940        -0.08536         0.16326         0.08154
4
step: 8  T=      182.059K  Ek=     0.094132  Ep=    -1.251530  E_gap=    11.610898  Err=       0.0000000000000000  time_stamp= 1672955485.5827
 O        -0.60576         0.00080        -0.00253         0.00030         0.00020        -0.00065        -1.14999        -0.07330         0.21359        -0.29215
 C         0.62103        -0.00159         0.01027         0.00315        -0.00038         0.00269        -0.76069         0.13211        -0.58078         0.12645
H         1.10130         0.98845        -0.04109        -0.02281         0.01569        -0.01085         0.98320        -0.02136         0.18445         0.08190
H         1.11391        -0.98225        -0.04111        -0.01945        -0.01437        -0.01087         0.92748        -0.03745         0.18273         0.08380
4
step: 9  T=      145.663K  Ek=     0.075314  Ep=    -1.232675  E_gap=    11.601691  Err=       0.0000000000000000  time_stamp= 1672955485.9308
 O        -0.60570         0.00088        -0.00278         0.00003         0.00018        -0.00060        -1.10091        -0.08136         0.23702        -0.29400
 C         0.62224        -0.00173         0.01131         0.00289        -0.00034         0.00249        -0.88703         0.14423        -0.64314         0.12410
H         1.09293         0.99471        -0.04529        -0.01897         0.01547        -0.01011         1.02598        -0.09592         0.20406         0.08396
H         1.10684        -0.98802        -0.04532        -0.01583        -0.01437        -0.01013         0.96196         0.03305         0.20205         0.08595
4
step: 10  T=      112.556K  Ek=     0.058196  Ep=    -1.215531  E_gap=    11.591365  Err=       0.0000000000000000  time_stamp= 1672955486.2997
 O        -0.60574         0.00095        -0.00301        -0.00023         0.00016        -0.00054        -1.03134        -0.08871         0.25858        -0.29562
 C         0.62333        -0.00186         0.01226         0.00258        -0.00029         0.00228        -0.99033         0.15349        -0.70331         0.12177
H         1.08613         1.00082        -0.04918        -0.01500         0.01493        -0.00929         1.04733        -0.18763         0.22345         0.08589
H         1.10125        -0.99375        -0.04921        -0.01212        -0.01408        -0.00932         0.97433         0.12285         0.22128         0.08796
4
step: 1  T=      353.783K  Ek=     0.182920  Ep=    -1.357465  E_gap=    11.598806  Err=       0.0000000000000000  time_stamp= 1699035458.5119
 O        -0.61038         0.00030         0.00002        -0.00052         0.00074         0.00005        -0.77418        -0.00116        -0.00166        -0.27155
 C         0.60960        -0.00159        -0.00008        -0.00039        -0.00392        -0.00019         0.65319         0.43374         0.00469         0.14419
H         1.21385         0.93257         0.00030         0.00998        -0.01847         0.00075        -0.07969         0.05202        -0.00158         0.06280
H         1.21080        -0.91826         0.00030         0.00289         0.05342         0.00075         0.20068        -0.48461        -0.00144         0.06455
4
step: 2  T=      319.274K  Ek=     0.165077  Ep=    -1.339512  E_gap=    11.602748  Err=       0.0000000000000000  time_stamp= 1699035460.2142
 O        -0.61062         0.00059         0.00004        -0.00070         0.00074         0.00005        -0.77826        -0.00210        -0.00312        -0.27035
 C         0.60948        -0.00313        -0.00015        -0.00023        -0.00371        -0.00019         0.34670         0.87328         0.00871         0.14770
H         1.21778         0.92522         0.00060         0.00969        -0.01797         0.00074        -0.07342         0.20696        -0.00309         0.05949
H         1.21210        -0.89726         0.00060         0.00424         0.05043         0.00074         0.50498        -1.07813        -0.00250         0.06316
4
step: 3  T=      264.865K  Ek=     0.136946  Ep=    -1.311083  E_gap=    11.603896  Err=       0.0000000000000000  time_stamp= 1699035461.5793
 O        -0.61094         0.00089         0.00006        -0.00089         0.00074         0.00004        -0.75953        -0.00690        -0.00458        -0.26918
 C         0.60941        -0.00456        -0.00022        -0.00017        -0.00336        -0.00018         0.02467         1.29064         0.01235         0.15094
H         1.22160         0.91819         0.00089         0.00942        -0.01689         0.00072        -0.06714         0.35872        -0.00455         0.05634
H         1.21419        -0.87792         0.00089         0.00674         0.04522         0.00073         0.80200        -1.64246        -0.00322         0.06190
4
step: 4  T=      201.509K  Ek=     0.104188  Ep=    -1.277912  E_gap=    11.602169  Err=       0.0000000000000000  time_stamp= 1699035462.7858
 O        -0.61133         0.00118         0.00007        -0.00107         0.00073         0.00004        -0.71804        -0.01701        -0.00605        -0.26804
 C         0.60934        -0.00582        -0.00030        -0.00021        -0.00289        -0.00018        -0.27537         1.64710         0.01566         0.15369
H         1.22532         0.91171         0.00118         0.00917        -0.01525         0.00070        -0.06384         0.49855        -0.00596         0.05349
H         1.21750        -0.86108         0.00118         0.01030         0.03800         0.00072         1.05725        -2.12864        -0.00366         0.06086
4
step: 5  T=      143.121K  Ek=     0.073999  Ep=    -1.247331  E_gap=    11.597663  Err=       0.0000000000000000  time_stamp= 1699035464.0790
 O        -0.61179         0.00147         0.00009        -0.00123         0.00073         0.00004        -0.65493        -0.03349        -0.00751        -0.26694
 C         0.60924        -0.00687        -0.00037        -0.00034        -0.00232        -0.00017        -0.51259         1.90455         0.01883         0.15579
H         1.22894         0.90599         0.00145         0.00892        -0.01311         0.00068        -0.06649         0.61776        -0.00733         0.05104
H         1.22243        -0.84751         0.00147         0.01469         0.02916         0.00070         1.23401        -2.48882        -0.00399         0.06011
4
step: 6  T=      102.618K  Ek=     0.053058  Ep=    -1.226167  E_gap=    11.590606  Err=       0.0000000000000000  time_stamp= 1699035465.4164
 O        -0.61232         0.00176         0.00011        -0.00138         0.00072         0.00004        -0.57230        -0.05618        -0.00893        -0.26585
 C         0.60907        -0.00767        -0.00043        -0.00052        -0.00168        -0.00017        -0.65078         2.03280         0.02200         0.15710
H         1.23245         0.90122         0.00172         0.00865        -0.01057         0.00065        -0.07781         0.70873        -0.00865         0.04906
H         1.22925        -0.83776         0.00174         0.01954         0.01925         0.00069         1.30089        -2.68535        -0.00442         0.05969
4
step: 7  T=       87.762K  Ek=     0.045376  Ep=    -1.218520  E_gap=    11.581257  Err=       0.0000000000000000  time_stamp= 1699035466.4421
 O        -0.61290         0.00205         0.00012        -0.00151         0.00070         0.00004        -0.47309        -0.08434        -0.01025        -0.26479
 C         0.60882        -0.00822        -0.00050        -0.00074        -0.00103        -0.00016        -0.66694         2.01853         0.02534         0.15758
H         1.23585         0.89753         0.00197         0.00831        -0.00775         0.00061        -0.09968         0.76589        -0.00994         0.04759
H         1.23806        -0.83211         0.00201         0.02440         0.00894         0.00067         1.23971        -2.70009        -0.00514         0.05963
4
step: 8  T=       98.630K  Ek=     0.050996  Ep=    -1.224421  E_gap=    11.569827  Err=       0.0000000000000000  time_stamp= 1699035466.8966
 O        -0.61353         0.00232         0.00014        -0.00161         0.00068         0.00004        -0.36056        -0.11659        -0.01139        -0.26378
 C         0.60849        -0.00850        -0.00056        -0.00093        -0.00041        -0.00015        -0.55763         1.86900         0.02888         0.15726
H         1.23910         0.89502         0.00221         0.00786        -0.00478         0.00057        -0.13276         0.78639        -0.01118         0.04662
H         1.24877        -0.83060         0.00228         0.02879        -0.00109         0.00065         1.05095        -2.53881        -0.00631         0.05990
4
step: 9  T=      127.945K  Ek=     0.066153  Ep=    -1.240009  E_gap=    11.556510  Err=       0.0000000000000000  time_stamp= 1699035467.7179
 O        -0.61419         0.00259         0.00015        -0.00168         0.00064         0.00003        -0.23833        -0.15179        -0.01233        -0.26285
 C         0.60808        -0.00854        -0.00062        -0.00108         0.00015        -0.00014        -0.33871         1.61124         0.03265         0.15624
H         1.24214         0.89371         0.00243         0.00727        -0.00180         0.00053        -0.17632         0.77029        -0.01237         0.04616
H         1.26109        -0.83298         0.00253         0.03224        -0.01022         0.00062         0.75336        -2.22973        -0.00796         0.06045
4
step: 10  T=      164.012K  Ek=     0.084801  Ep=    -1.259093  E_gap=    11.541634  Err=       0.0000000000000000  time_stamp= 1699035468.7082
 O        -0.61487         0.00284         0.00016        -0.00172         0.00060         0.00003        -0.11032        -0.18862        -0.01315        -0.26206
 C         0.60762        -0.00838        -0.00067        -0.00114         0.00061        -0.00013        -0.03950         1.28317         0.03673         0.15462
H         1.24491         0.89358         0.00263         0.00649         0.00105         0.00048        -0.22856         0.72037        -0.01352         0.04623
H         1.27456        -0.83878         0.00277         0.03441        -0.01796         0.00058         0.37838        -1.81492        -0.01006         0.06120
4
step: 1  T=      562.766K  Ek=     0.290973  Ep=    -1.364080  E_gap=    11.563869  Err=       0.0000000000000000  time_stamp= 1699035790.0709
 O        -0.61483         0.00022        -0.00023        -0.01151         0.00054        -0.00058         0.39003        -0.02542         0.01856        -0.27644
 C         0.61593        -0.00010         0.00095         0.01529        -0.00027         0.00236        -0.40737        -0.10190        -0.05623         0.13831
H         1.20695         0.93384        -0.00379        -0.00700        -0.01510        -0.00944         0.06546         0.15640         0.01855         0.06885
H         1.21283        -0.93607        -0.00379         0.00749         0.00976        -0.00943        -0.04813        -0.02908         0.01912         0.06929
4
step: 2  T=      537.093K  Ek=     0.277698  Ep=    -1.350657  E_gap=    11.533828  Err=       0.0000000000000000  time_stamp= 1699035791.3912
 O        -0.61941         0.00043        -0.00047        -0.01128         0.00053        -0.00058         1.46332        -0.05007         0.03852        -0.28005
 C         0.62202        -0.00021         0.00189         0.01495        -0.00032         0.00234        -1.66924        -0.20629        -0.11077         0.13628
H         1.20420         0.92792        -0.00755        -0.00646        -0.01401        -0.00933         0.21529         0.41555         0.03495         0.07141
H         1.21579        -0.93219        -0.00755         0.00738         0.00940        -0.00933        -0.00937        -0.15920         0.03729         0.07235
4
step: 3  T=      485.897K  Ek=     0.251228  Ep=    -1.323939  E_gap=    11.503050  Err=       0.0000000000000000  time_stamp= 1699035792.7032
 O        -0.62386         0.00064        -0.00070        -0.01081         0.00051        -0.00057         2.45148        -0.07339         0.05936        -0.28341
 C         0.62790        -0.00036         0.00282         0.01423        -0.00040         0.00229        -2.83440        -0.30424        -0.16292         0.13445
H         1.20178         0.92263        -0.01126        -0.00537        -0.01194        -0.00917         0.35473         0.66174         0.04917         0.07375
H         1.21873        -0.92855        -0.01125         0.00742         0.00855        -0.00915         0.02818        -0.28411         0.05439         0.07522
4
step: 4  T=      416.326K  Ek=     0.215257  Ep=    -1.287662  E_gap=    11.472246  Err=       0.0000000000000000  time_stamp= 1699035793.9273
 O        -0.62806         0.00084        -0.00092        -0.01011         0.00049        -0.00055         3.34091        -0.09488         0.08060        -0.28647
 C         0.63341        -0.00053         0.00372         0.01315        -0.00051         0.00223        -3.87302        -0.38542        -0.21258         0.13277
H         1.19990         0.91836        -0.01489        -0.00378        -0.00900        -0.00896         0.47220         0.87545         0.06154         0.07584
H         1.22172        -0.92534        -0.01487         0.00759         0.00725        -0.00891         0.05991        -0.39515         0.07044         0.07787
4
step: 5  T=      337.351K  Ek=     0.174424  Ep=    -1.246514  E_gap=    11.442206  Err=       0.0000000000000000  time_stamp= 1699035794.3813
 O        -0.63195         0.00103        -0.00114        -0.00921         0.00047        -0.00053         4.12362        -0.11416         0.10175        -0.28918
 C         0.63842        -0.00076         0.00460         0.01176        -0.00064         0.00216        -4.76188        -0.43945        -0.26009         0.13117
H         1.19875         0.91543        -0.01842        -0.00181        -0.00534        -0.00870         0.55687         1.03763         0.07274         0.07771
H         1.22480        -0.92275        -0.01838         0.00786         0.00557        -0.00861         0.08140        -0.48402         0.08559         0.08031
4
step: 6  T=      258.223K  Ek=     0.133511  Ep=    -1.205345  E_gap=    11.413281  Err=       0.0000000000000000  time_stamp= 1699035795.1648
 O        -0.63543         0.00122        -0.00134        -0.00814         0.00044        -0.00050         4.80173        -0.13179         0.12469        -0.29159
 C         0.64282        -0.00105         0.00545         0.01012        -0.00079         0.00206        -5.49245        -0.45655        -0.30971         0.12999
H         1.19845         0.91409        -0.02185         0.00040        -0.00118        -0.00840         0.60134         1.13246         0.08438         0.07923
H         1.22801        -0.92089        -0.02176         0.00818         0.00360        -0.00826         0.08938        -0.54411         0.10064         0.08237
4
step: 7  T=      187.127K  Ek=     0.096752  Ep=    -1.168441  E_gap=    11.387206  Err=       0.0000000000000000  time_stamp= 1699035796.2342
 O        -0.63845         0.00138        -0.00154        -0.00691         0.00041        -0.00047         5.36333        -0.14621         0.14478        -0.29350
 C         0.64651        -0.00139         0.00625         0.00826        -0.00093         0.00196        -6.04184        -0.43362        -0.35596         0.12840
H         1.19908         0.91448        -0.02515         0.00270         0.00318        -0.00806         0.59845         1.14925         0.09627         0.08072
H         1.23135        -0.91986        -0.02499         0.00851         0.00147        -0.00784         0.08005        -0.56942         0.11491         0.08437
4
step: 8  T=      130.029K  Ek=     0.067230  Ep=    -1.138860  E_gap=    11.364250  Err=       0.0000000000000000  time_stamp= 1699035797.0781
 O        -0.64096         0.00154        -0.00172        -0.00556         0.00037        -0.00043         5.81484        -0.15802         0.16361        -0.29498
 C         0.64943        -0.00179         0.00701         0.00626        -0.00106         0.00184        -6.41628        -0.36948        -0.40253         0.12675
H         1.20062         0.91664        -0.02830         0.00490         0.00746        -0.00766         0.54879         1.08552         0.10977         0.08205
H         1.23481        -0.91971        -0.02803         0.00876        -0.00069        -0.00737         0.05265        -0.55802         0.12914         0.08618
4
step: 9  T=       90.062K  Ek=     0.046566  Ep=    -1.118218  E_gap=    11.344998  Err=       0.0000000000000000  time_stamp= 1699035798.0079
 O        -0.64290         0.00168        -0.00188        -0.00412         0.00033        -0.00039         6.15770        -0.16738         0.18090        -0.29603
 C         0.65152        -0.00224         0.00772         0.00417        -0.00116         0.00170        -6.62154        -0.26867        -0.44980         0.12505
H         1.20299         0.92046        -0.03128         0.00682         0.01135        -0.00721         0.45642         0.94659         0.12538         0.08321
H         1.23836        -0.92041        -0.03089         0.00888        -0.00273        -0.00685         0.00742        -0.51054         0.14352         0.08777
4
step: 10  T=       67.770K  Ek=     0.035040  Ep=    -1.106771  E_gap=    11.329919  Err=       0.0000000000000000  time_stamp= 1699035799.0008
 O        -0.64425         0.00180        -0.00203        -0.00260         0.00029        -0.00035         6.39314        -0.17451         0.19641        -0.29665
 C         0.65277        -0.00272         0.00837         0.00203        -0.00123         0.00155        -6.66850        -0.13987        -0.49761         0.12334
H         1.20607         0.92572        -0.03406         0.00833         0.01459        -0.00670         0.32918         0.74487         0.14310         0.08418
H         1.24191        -0.92190        -0.03352         0.00879        -0.00454        -0.00627        -0.05383        -0.43049         0.15810         0.08913
4
step: 1  T=      302.337K  Ek=     0.156320  Ep=    -1.355577  E_gap=    11.596014  Err=       0.0000000000000000  time_stamp= 1700770924.9117
 O        -0.60977        -0.00022         0.00047         0.00099        -0.00054         0.00116        -0.87894         0.05926        -0.03521        -0.27192
 C         0.60908        -0.00122        -0.00188        -0.00163        -0.00297        -0.00468         0.98805         0.59746         0.11166         0.14173
H         1.21856         0.94587         0.00751         0.02135         0.01401         0.01869        -0.30303        -0.34878        -0.04099         0.06468
H         1.20257        -0.92783         0.00751        -0.01769         0.02984         0.01870         0.19392        -0.30794        -0.03546         0.06551
4
step: 2  T=      269.353K  Ek=     0.139266  Ep=    -1.338334  E_gap=    11.596712  Err=       0.0000000000000000  time_stamp= 1700770925.0880
 O        -0.60941        -0.00043         0.00093         0.00077        -0.00052         0.00115        -0.99027         0.11596        -0.07011        -0.27123
 C         0.60849        -0.00237        -0.00374        -0.00131        -0.00268        -0.00463         1.01119         1.17343         0.21958         0.14293
H         1.22687         0.95121         0.01495         0.01981         0.01226         0.01845        -0.49975        -0.56706        -0.08564         0.06333
H         1.19564        -0.91613         0.01496        -0.01640         0.02786         0.01851         0.47883        -0.72233        -0.06382         0.06498
4
step: 3  T=      221.706K  Ek=     0.114631  Ep=    -1.313398  E_gap=    11.594877  Err=       0.0000000000000000  time_stamp= 1700770925.2443
 O        -0.60915        -0.00063         0.00138         0.00052        -0.00048         0.00112        -1.07795         0.16734        -0.10459        -0.27062
 C         0.60803        -0.00337        -0.00558        -0.00099        -0.00222        -0.00454         0.99467         1.69542         0.32213         0.14405
H         1.23441         0.95568         0.02226         0.01758         0.00974         0.01803        -0.66740        -0.74584        -0.13254         0.06211
H         1.18945        -0.90554         0.02231        -0.01404         0.02434         0.01822         0.75068        -1.11692        -0.08500         0.06446
4
step: 4  T=      168.569K  Ek=     0.087157  Ep=    -1.285573  E_gap=    11.590906  Err=       0.0000000000000000  time_stamp= 1700770925.4038
 O        -0.60900        -0.00081         0.00183         0.00025        -0.00044         0.00110        -1.13832         0.21081        -0.13837        -0.27008
 C         0.60770        -0.00415        -0.00738        -0.00067        -0.00161        -0.00442         0.95429         2.12980         0.41879         0.14501
H         1.24093         0.95901         0.02937         0.01476         0.00663         0.01743        -0.80193        -0.88136        -0.18006         0.06109
H         1.18441        -0.89666         0.02954        -0.01072         0.01941         0.01787         0.98596        -1.45925        -0.10036         0.06398
4
step: 5  T=      120.564K  Ek=     0.062336  Ep=    -1.260432  E_gap=    11.585307  Err=       0.0000000000000000  time_stamp= 1700770925.5645
 O        -0.60895        -0.00098         0.00226        -0.00003        -0.00038         0.00106        -1.16836         0.24415        -0.17127        -0.26964
 C         0.60750        -0.00465        -0.00912        -0.00037        -0.00087        -0.00427         0.90827         2.44490         0.51058         0.14572
H         1.24622         0.96098         0.03621         0.01150         0.00308         0.01665        -0.90103        -0.97205        -0.22668         0.06035
H         1.18088        -0.89001         0.03661        -0.00661         0.01333         0.01746         1.16112        -1.71700        -0.11264         0.06357
4
step: 6  T=       87.292K  Ek=     0.045133  Ep=    -1.243024  E_gap=    11.578589  Err=       0.0000000000000000  time_stamp= 1700770925.7240
 O        -0.60902        -0.00112         0.00267        -0.00031        -0.00032         0.00101        -1.16604         0.26573        -0.20298        -0.26929
 C         0.60740        -0.00484        -0.01079        -0.00009        -0.00006        -0.00409         0.87283         2.61545         0.59944         0.14611
H         1.25013         0.96147         0.04269         0.00793        -0.00073         0.01570        -0.96349        -1.01758        -0.27098         0.05995
H         1.17912        -0.88599         0.04351        -0.00198         0.00647         0.01701         1.25670        -1.86360        -0.12548         0.06322
4
step: 7  T=       74.866K  Ek=     0.038708  Ep=    -1.236566  E_gap=    11.571156  Err=       0.0000000000000000  time_stamp= 1700770925.8845
 O        -0.60920        -0.00123         0.00307        -0.00059        -0.00025         0.00096        -1.13057         0.27472        -0.23320        -0.26905
 C         0.60743        -0.00470        -0.01239         0.00019         0.00079        -0.00389         0.85802         2.62706         0.68761         0.14615
H         1.25257         0.96040         0.04876         0.00419        -0.00463         0.01458        -0.98875        -1.01816        -0.31166         0.05994
H         1.17929        -0.88483         0.05021         0.00284        -0.00070         0.01649         1.26130        -1.88361        -0.14276         0.06297
4
step: 8  T=       84.296K  Ek=     0.043585  Ep=    -1.241586  E_gap=    11.563249  Err=       0.0000000000000000  time_stamp= 1700770926.0439
 O        -0.60949        -0.00132         0.00344        -0.00085        -0.00019         0.00090        -1.06262         0.27115        -0.26163        -0.26891
 C         0.60756        -0.00422        -0.01390         0.00047         0.00161        -0.00365         0.86505         2.47904         0.77668         0.14582
H         1.25349         0.95777         0.05436         0.00043        -0.00844         0.01332        -0.97650        -0.97411        -0.34749         0.06031
H         1.18140        -0.88655         0.05670         0.00750        -0.00771         0.01590         1.17408        -1.77608        -0.16756         0.06279
4
step: 9  T=      111.330K  Ek=     0.057562  Ep=    -1.255837  E_gap=    11.554927  Err=       0.0000000000000000  time_stamp= 1700770926.2041
 O        -0.60988        -0.00138         0.00379        -0.00110        -0.00012         0.00083        -0.96429         0.25590        -0.28802        -0.26888
 C         0.60780        -0.00341        -0.01531         0.00075         0.00235        -0.00339         0.88595         2.18451         0.86680         0.14518
H         1.25292         0.95365         0.05942        -0.00321        -0.01200         0.01193        -0.92665        -0.88574        -0.37735         0.06104
H         1.18530        -0.89100         0.06293         0.01168        -0.01408         0.01519         1.00499        -1.55468        -0.20143         0.06267
4
step: 10  T=      147.781K  Ek=     0.076409  Ep=    -1.275008  E_gap=    11.546105  Err=       0.0000000000000000  time_stamp= 1700770926.3637
 O        -0.61037        -0.00142         0.00411        -0.00131        -0.00007         0.00076        -0.83892         0.23061        -0.31222        -0.26896
 C         0.60816        -0.00233        -0.01661         0.00104         0.00299        -0.00309         0.90584         1.76753         0.95642         0.14430
H         1.25092         0.94817         0.06390        -0.00659        -0.01514         0.01044        -0.83943        -0.75352        -0.40025         0.06208
H         1.19074        -0.89782         0.06885         0.01508        -0.01944         0.01434         0.77252        -1.24462        -0.24396         0.06258
4
step: 1  T=      629.514K  Ek=     0.325484  Ep=    -1.348336  E_gap=    11.582374  Err=       0.0000000000000000  time_stamp= 1750452174.6421
O        -0.60977         0.00033         0.00049
C         0.60972        -0.00013        -0.00199
H         1.20213         0.95789         0.00797
H         1.21139        -0.96163         0.00797
4
step: 2  T=      571.531K  Ek=     0.295505  Ep=    -1.317965  E_gap=    11.569805  Err=       0.0000000000000000  time_stamp= 1750452174.7107
O        -0.60940         0.00066         0.00098
C         0.60981        -0.00028        -0.00397
H         1.19419         0.97504         0.01587
H         1.21245        -0.98225         0.01586
4
step: 3  T=      492.781K  Ek=     0.254787  Ep=    -1.276813  E_gap=    11.555869  Err=       0.0000000000000000  time_stamp= 1750452174.7594
O        -0.60911         0.00098         0.00147
C         0.61010        -0.00046        -0.00592
H         1.18587         0.99093         0.02363
H         1.21264        -1.00110         0.02362
4
step: 4  T=      406.069K  Ek=     0.209954  Ep=    -1.231573  E_gap=    11.541586  Err=       0.0000000000000000  time_stamp= 1750452174.8055
O        -0.60889         0.00130         0.00194
C         0.61062        -0.00068        -0.00781
H         1.17710         1.00511         0.03119
H         1.21171        -1.01754         0.03115
4
step: 5  T=      323.607K  Ek=     0.167318  Ep=    -1.188606  E_gap=    11.527939  Err=       0.0000000000000000  time_stamp= 1750452174.8520
O        -0.60874         0.00159         0.00240
C         0.61138        -0.00096        -0.00964
H         1.16784         1.01721         0.03847
H         1.20948        -1.03109         0.03837
4
step: 6  T=      255.460K  Ek=     0.132083  Ep=    -1.153143  E_gap=    11.515816  Err=       0.0000000000000000  time_stamp= 1750452174.8983
O        -0.60865         0.00187         0.00284
C         0.61238        -0.00128        -0.01139
H         1.15813         1.02693         0.04540
H         1.20585        -1.04137         0.04522
4
step: 7  T=      208.593K  Ek=     0.107851  Ep=    -1.128800  E_gap=    11.505944  Err=       0.0000000000000000  time_stamp= 1750452174.9436
O        -0.60861         0.00213         0.00326
C         0.61361        -0.00166        -0.01304
H         1.14803         1.03409         0.05193
H         1.20078        -1.04812         0.05160
4
step: 8  T=      186.387K  Ek=     0.096369  Ep=    -1.117329  E_gap=    11.498844  Err=       0.0000000000000000  time_stamp= 1750452174.9918
O        -0.60863         0.00237         0.00367
C         0.61504        -0.00209        -0.01457
H         1.13764         1.03858         0.05798
H         1.19432        -1.05123         0.05747
4
step: 9  T=      188.494K  Ek=     0.097459  Ep=    -1.118546  E_gap=    11.494778  Err=       0.0000000000000000  time_stamp= 1750452175.0376
O        -0.60868         0.00258         0.00404
C         0.61665        -0.00257        -0.01598
H         1.12710         1.04040         0.06351
H         1.18657        -1.05067         0.06276
4
step: 10  T=      210.961K  Ek=     0.109075  Ep=    -1.130395  E_gap=    11.493732  Err=       0.0000000000000000  time_stamp= 1750452175.0811
O        -0.60877         0.00276         0.00439
C         0.61839        -0.00310        -0.01725
H         1.11660         1.03961         0.06847
H         1.17769        -1.04654         0.06742
