4
step: 1  E_total = -108.384031955  
B        -0.01475        -0.00162         0.00028
H         1.37495         0.00063        -0.00089
H        -0.61284         1.03668        -0.00103
H        -0.60395        -1.01996        -0.00103
4
step: 2  E_total = -108.468964225  
B        -0.01460        -0.00284         0.00049
H         1.36059         0.00113        -0.00157
H        -0.60980         1.03941        -0.00183
H        -0.59422        -1.01005        -0.00183
4
step: 3  E_total = -108.562623967  
B        -0.01420        -0.00367         0.00064
H         1.34411         0.00148        -0.00206
H        -0.60592         1.03893        -0.00241
H        -0.58585        -1.00102        -0.00241
4
step: 4  E_total = -108.658114593  
B        -0.01363        -0.00417         0.00075
H         1.32656         0.00173        -0.00239
H        -0.60154         1.03612        -0.00280
H        -0.57884        -0.99312        -0.00281
4
step: 5  E_total = -108.751481588  
B        -0.01293        -0.00441         0.00081
H         1.30856         0.00191        -0.00260
H        -0.59689         1.03173        -0.00306
H        -0.57302        -0.98634        -0.00307
4
step: 6  E_total = -108.840460260  
B        -0.01213        -0.00445         0.00086
H         1.29039         0.00202        -0.00272
H        -0.59211         1.02629        -0.00322
H        -0.56820        -0.98056        -0.00324
4
step: 7  E_total = -108.923689295  
B        -0.01126        -0.00435         0.00088
H         1.27222         0.00210        -0.00278
H        -0.58729         1.02019        -0.00330
H        -0.56419        -0.97568        -0.00333
4
step: 8  E_total = -109.000281713  
B        -0.01033        -0.00413         0.00089
H         1.25412         0.00216        -0.00278
H        -0.58250         1.01369        -0.00334
H        -0.56084        -0.97158        -0.00338
4
step: 9  E_total = -109.069603572  
B        -0.00936        -0.00383         0.00088
H         1.23615         0.00219        -0.00276
H        -0.57778         1.00700        -0.00333
H        -0.55804        -0.96814        -0.00338
4
step: 10  E_total = -109.131161397  
B        -0.00834        -0.00347         0.00087
H         1.21834         0.00222        -0.00270
H        -0.57316         1.00024        -0.00329
H        -0.55569        -0.96528        -0.00336
