4
step: 1  E_total = -475.478421739  
O        -0.60838         0.00049         0.00018
C         0.60842        -0.00120        -0.00071
H         1.20041         0.94929         0.00285
H         1.20650        -0.94287         0.00285
4
step: 2  E_total = -475.478377360  
O        -0.60666         0.00099         0.00035
C         0.60722        -0.00237        -0.00142
H         1.19092         0.95820         0.00568
H         1.20313        -0.94553         0.00568
4
step: 3  E_total = -475.478325587  
O        -0.60510         0.00147         0.00053
C         0.60622        -0.00352        -0.00212
H         1.18135         0.96652         0.00847
H         1.19972        -0.94792         0.00847
4
step: 4  E_total = -475.478272914  
O        -0.60371         0.00194         0.00069
C         0.60546        -0.00461        -0.00280
H         1.17174         0.97409         0.01118
H         1.19635        -0.95001         0.01119
4
step: 5  E_total = -475.478225321  
O        -0.60254         0.00241         0.00086
C         0.60498        -0.00564        -0.00346
H         1.16216         0.98074         0.01380
H         1.19307        -0.95178         0.01382
4
step: 6  E_total = -475.478187522  
O        -0.60161         0.00285         0.00102
C         0.60480        -0.00658        -0.00410
H         1.15270         0.98637         0.01631
H         1.18994        -0.95321         0.01635
4
step: 7  E_total = -475.478162465  
O        -0.60093         0.00328         0.00117
C         0.60491        -0.00744        -0.00470
H         1.14344         0.99091         0.01868
H         1.18705        -0.95432         0.01875
4
step: 8  E_total = -475.478151106  
O        -0.60052         0.00369         0.00131
C         0.60533        -0.00820        -0.00526
H         1.13451         0.99432         0.02089
H         1.18446        -0.95514         0.02100
4
step: 9  E_total = -475.478152442  
O        -0.60038         0.00407         0.00145
C         0.60605        -0.00885        -0.00579
H         1.12604         0.99662         0.02294
H         1.18224        -0.95568         0.02310
4
step: 10  E_total = -475.478163817  
O        -0.60053         0.00442         0.00157
C         0.60705        -0.00939        -0.00627
H         1.11816         0.99785         0.02479
H         1.18045        -0.95600         0.02503
