4
step: 1  E_total = -472.212300136  
O        -0.60036        -0.00102         0.00005
C         0.60028         0.00049        -0.00019
H         1.20074         1.03739         0.00074
H         1.17589        -1.02707         0.00074
4
step: 2  E_total = -472.212678796  
O        -0.60045        -0.00203         0.00009
C         0.60242         0.00102        -0.00037
H         1.20089         1.04132         0.00149
H         1.15172        -1.02124         0.00149
4
step: 3  E_total = -472.213184112  
O        -0.60114        -0.00303         0.00014
C         0.60551         0.00162        -0.00056
H         1.19956         1.04171         0.00222
H         1.12713        -1.01301         0.00222
4
step: 4  E_total = -472.213718377  
O        -0.60238        -0.00400         0.00019
C         0.60945         0.00235        -0.00074
H         1.19678         1.03861         0.00294
H         1.10267        -1.00305         0.00295
4
step: 5  E_total = -472.214167441  
O        -0.60416        -0.00495         0.00023
C         0.61415         0.00324        -0.00093
H         1.19265         1.03214         0.00364
H         1.07895        -0.99219         0.00367
4
step: 6  E_total = -472.214430527  
O        -0.60641        -0.00586         0.00028
C         0.61947         0.00434        -0.00111
H         1.18736         1.02260         0.00433
H         1.05662        -0.98138         0.00438
4
step: 7  E_total = -472.214463565  
O        -0.60909        -0.00672         0.00033
C         0.62526         0.00570        -0.00128
H         1.18115         1.01038         0.00500
H         1.03628        -0.97165         0.00510
4
step: 8  E_total = -472.214302275  
O        -0.61212        -0.00754         0.00037
C         0.63137         0.00735        -0.00146
H         1.17437         0.99604         0.00564
H         1.01851        -0.96404         0.00581
4
step: 9  E_total = -472.214054126  
O        -0.61545        -0.00830         0.00042
C         0.63762         0.00931        -0.00163
H         1.16745         0.98027         0.00626
H         1.00376        -0.95945         0.00654
4
step: 10  E_total = -472.213829572  
O        -0.61899        -0.00901         0.00046
C         0.64385         0.01155        -0.00180
H         1.16089         0.96393         0.00687
H         0.99234        -0.95860         0.00728
