4
step: 1  T=      400.000K  Ek=  0.206815998  Ep= -0.103361138  E_gap=    10.892955  Err=       0.0000000000000000  time_stamp= 1758753277.7020
O         0.69383         0.00096         0.00038
C        -0.70609        -0.00211        -0.00167
H        -1.29144         0.94417         0.00696
H        -1.30793        -0.93428         0.00696
4
step: 2  T=      400.000K  Ek=  0.206815998  Ep= -0.145281617  E_gap=    10.907689  Err=       0.0000000000000000  time_stamp= 1758753277.7655
O         0.69202         0.00205         0.00080
C        -0.70505        -0.00449        -0.00355
H        -1.27400         0.94845         0.01481
H        -1.30919        -0.92750         0.01481
4
step: 3  T=      400.000K  Ek=  0.206815998  Ep= -0.208741137  E_gap=    10.930093  Err=       0.0000000000000000  time_stamp= 1758753277.8294
O         0.68925         0.00303         0.00118
C        -0.70275        -0.00661        -0.00524
H        -1.25720         0.95204         0.02186
H        -1.30935        -0.92130         0.02186
4
step: 4  T=      400.000K  Ek=  0.206815998  Ep= -0.288231120  E_gap=    10.958538  Err=       0.0000000000000000  time_stamp= 1758753277.8938
O         0.68574         0.00386         0.00150
C        -0.69943        -0.00840        -0.00667
H        -1.24181         0.95493         0.02787
H        -1.30864        -0.91610         0.02788
4
step: 5  T=      400.000K  Ek=  0.206815998  Ep= -0.378397624  E_gap=    10.991381  Err=       0.0000000000000000  time_stamp= 1758753277.9592
O         0.68172         0.00453         0.00175
C        -0.69533        -0.00983        -0.00784
H        -1.22819         0.95721         0.03279
H        -1.30733        -0.91206         0.03282
4
step: 6  T=      400.000K  Ek=  0.206815998  Ep= -0.474607222  E_gap=    11.027196  Err=       0.0000000000000000  time_stamp= 1758753278.0245
O         0.67736         0.00506         0.00195
C        -0.69065        -0.01092        -0.00876
H        -1.21645         0.95899         0.03667
H        -1.30562        -0.90919         0.03673
4
step: 7  T=      400.000K  Ek=  0.206815998  Ep= -0.573098424  E_gap=    11.064851  Err=       0.0000000000000000  time_stamp= 1758753278.0902
O         0.67280         0.00546         0.00210
C        -0.68558        -0.01171        -0.00946
H        -1.20648         0.96037         0.03963
H        -1.30364        -0.90738         0.03974
4
step: 8  T=      400.000K  Ek=  0.206815998  Ep= -0.670930024  E_gap=    11.103505  Err=       0.0000000000000000  time_stamp= 1758753278.1547
O         0.66814         0.00574         0.00220
C        -0.68025        -0.01225        -0.00996
H        -1.19811         0.96146         0.04180
H        -1.30149        -0.90649         0.04196
4
step: 9  T=      400.000K  Ek=  0.206815998  Ep= -0.765854631  E_gap=    11.142558  Err=       0.0000000000000000  time_stamp= 1758753278.2208
O         0.66343         0.00592         0.00226
C        -0.67475        -0.01258        -0.01030
H        -1.19113         0.96231         0.04331
H        -1.29921        -0.90633         0.04352
4
step: 10  T=      400.000K  Ek=  0.206815998  Ep= -0.856179165  E_gap=    11.181599  Err=       0.0000000000000000  time_stamp= 1758753278.2865
O         0.65871         0.00602         0.00229
C        -0.66915        -0.01275        -0.01051
H        -1.18534         0.96298         0.04427
H        -1.29680        -0.90673         0.04454
