4
step: 1  E_total = -474.255932489  
O         0.69252        -0.00055        -0.00007
C        -0.70301         0.00215         0.00032
H        -1.30876         0.92788        -0.00135
H        -1.30662        -0.94476        -0.00135
4
step: 2  E_total = -474.319231392  
O         0.68997        -0.00100        -0.00013
C        -0.69954         0.00387         0.00059
H        -1.31026         0.91775        -0.00247
H        -1.30601        -0.94804        -0.00247
4
step: 3  E_total = -474.393292331  
O         0.68692        -0.00134        -0.00018
C        -0.69561         0.00513         0.00080
H        -1.31056         0.91002        -0.00333
H        -1.30410        -0.94982        -0.00332
4
step: 4  E_total = -474.473539910  
O         0.68359        -0.00160        -0.00021
C        -0.69147         0.00597         0.00095
H        -1.31004         0.90459        -0.00397
H        -1.30117        -0.95030        -0.00395
4
step: 5  E_total = -474.556486889  
O         0.68012        -0.00178        -0.00024
C        -0.68724         0.00645         0.00105
H        -1.30897         0.90112        -0.00442
H        -1.29749        -0.94976        -0.00440
4
step: 6  E_total = -474.639609282  
O         0.67659        -0.00190        -0.00025
C        -0.68301         0.00667         0.00113
H        -1.30756         0.89924        -0.00473
H        -1.29330        -0.94849        -0.00469
4
step: 7  E_total = -474.721159828  
O         0.67306        -0.00198        -0.00026
C        -0.67882         0.00668         0.00117
H        -1.30590         0.89857        -0.00494
H        -1.28879        -0.94673        -0.00488
4
step: 8  E_total = -474.799975234  
O         0.66954        -0.00203        -0.00027
C        -0.67469         0.00655         0.00120
H        -1.30406         0.89879        -0.00506
H        -1.28406        -0.94465        -0.00498
4
step: 9  E_total = -474.875307931  
O         0.66604        -0.00205        -0.00027
C        -0.67060         0.00632         0.00121
H        -1.30204         0.89963        -0.00512
H        -1.27924        -0.94242        -0.00502
4
step: 10  E_total = -474.946693671  
O         0.66257        -0.00205        -0.00027
C        -0.66657         0.00602         0.00120
H        -1.29985         0.90089        -0.00514
H        -1.27438        -0.94015        -0.00501
