4
step: 1  E_total = -472.534499871  
O        -0.61188        -0.00043        -0.00062
C         0.61053         0.00169         0.00252
H         1.21886         0.93661        -0.01007
H         1.21854        -0.94997        -0.01007
4
step: 2  E_total = -472.534421693  
O        -0.61391        -0.00086        -0.00125
C         0.61181         0.00335         0.00504
H         1.22768         0.93285        -0.02011
H         1.22673        -0.95912        -0.02010
4
step: 3  E_total = -472.534343782  
O        -0.61626        -0.00130        -0.00187
C         0.61361         0.00494         0.00754
H         1.23618         0.92871        -0.03009
H         1.23400        -0.96700        -0.03006
4
step: 4  E_total = -472.534282142  
O        -0.61886        -0.00173        -0.00249
C         0.61589         0.00643         0.01002
H         1.24429         0.92416        -0.03998
H         1.24006        -0.97324        -0.03988
4
step: 5  E_total = -472.534244977  
O        -0.62166        -0.00218        -0.00311
C         0.61858         0.00780         0.01247
H         1.25195         0.91923        -0.04977
H         1.24468        -0.97759        -0.04953
4
step: 6  E_total = -472.534234822  
O        -0.62460        -0.00262        -0.00372
C         0.62164         0.00902         0.01489
H         1.25914         0.91397        -0.05941
H         1.24770        -0.97985        -0.05894
4
step: 7  E_total = -472.534251111  
O        -0.62760        -0.00307        -0.00433
C         0.62498         0.01009         0.01726
H         1.26583         0.90846        -0.06889
H         1.24901        -0.97994        -0.06806
4
step: 8  E_total = -472.534291576  
O        -0.63062        -0.00352        -0.00493
C         0.62851         0.01099         0.01958
H         1.27201         0.90281        -0.07819
H         1.24856        -0.97786        -0.07683
4
step: 9  E_total = -472.534352492  
O        -0.63359        -0.00397        -0.00553
C         0.63217         0.01171         0.02184
H         1.27768         0.89714        -0.08728
H         1.24637        -0.97369        -0.08522
4
step: 10  E_total = -472.534427771  
O        -0.63644        -0.00442        -0.00611
C         0.63586         0.01226         0.02403
H         1.28286         0.89161        -0.09615
H         1.24252        -0.96761        -0.09320
