4
step: 1  T=      290.002K  Ek=  0.149942725  Ep= -1.353970275  E_gap=    11.617599  Err=       0.0000000000000000  time_stamp= 1758753276.2456
O        -0.60759        -0.00032         0.00023
C         0.60696        -0.00041        -0.00093
H         1.21237         0.93915         0.00370
H         1.19936        -0.92918         0.00370
4
step: 2  T=      255.642K  Ek=  0.132176951  Ep= -1.336067842  E_gap=    11.640852  Err=       0.0000000000000000  time_stamp= 1758753276.3116
O        -0.60511        -0.00064         0.00046
C         0.60431        -0.00077        -0.00185
H         1.21476         0.93811         0.00737
H         1.18924        -0.91881         0.00737
4
step: 3  T=      206.993K  Ek=  0.107023492  Ep= -1.310670326  E_gap=    11.661677  Err=       0.0000000000000000  time_stamp= 1758753276.4062
O        -0.60283        -0.00095         0.00068
C         0.60188        -0.00103        -0.00275
H         1.21688         0.93687         0.01098
H         1.17990        -0.90950         0.01099
4
step: 4  T=      151.663K  Ek=  0.078416072  Ep= -1.281753923  E_gap=    11.679511  Err=       0.0000000000000000  time_stamp= 1758753276.4683
O        -0.60081        -0.00124         0.00090
C         0.59972        -0.00117        -0.00364
H         1.21871         0.93541         0.01450
H         1.17177        -0.90185         0.01455
4
step: 5  T=       99.074K  Ek=  0.051225445  Ep= -1.254259808  E_gap=    11.693898  Err=       0.0000000000000000  time_stamp= 1758753276.5316
O        -0.59911        -0.00151         0.00111
C         0.59787        -0.00112        -0.00450
H         1.22020         0.93375         0.01789
H         1.16522        -0.89637         0.01803
4
step: 6  T=       58.406K  Ek=  0.030198416  Ep= -1.233008980  E_gap=    11.704464  Err=       0.0000000000000000  time_stamp= 1758753276.5914
O        -0.59777        -0.00176         0.00132
C         0.59639        -0.00088        -0.00533
H         1.22135         0.93190         0.02114
H         1.16057        -0.89344         0.02142
4
step: 7  T=       36.369K  Ek=  0.018804304  Ep= -1.221529179  E_gap=    11.710904  Err=       0.0000000000000000  time_stamp= 1758753276.6521
O        -0.59683        -0.00198         0.00152
C         0.59528        -0.00043        -0.00612
H         1.22215         0.92991         0.02421
H         1.15800        -0.89330         0.02470
4
step: 8  T=       35.554K  Ek=  0.018382814  Ep= -1.221175757  E_gap=    11.712970  Err=       0.0000000000000000  time_stamp= 1758753276.7174
O        -0.59632        -0.00217         0.00170
C         0.59460         0.00022        -0.00688
H         1.22262         0.92783         0.02708
H         1.15755        -0.89599         0.02787
4
step: 9  T=       53.977K  Ek=  0.027908058  Ep= -1.230890916  E_gap=    11.710495  Err=       0.0000000000000000  time_stamp= 1758753276.7776
O        -0.59625        -0.00234         0.00188
C         0.59436         0.00107        -0.00759
H         1.22280         0.92571         0.02972
H         1.15913        -0.90136         0.03091
4
step: 10  T=       85.947K  Ek=  0.044438007  Ep= -1.247672916  E_gap=    11.703421  Err=       0.0000000000000000  time_stamp= 1758753276.8396
O        -0.59662        -0.00247         0.00204
C         0.59457         0.00207        -0.00824
H         1.22274         0.92363         0.03211
H         1.16254        -0.90908         0.03379
