4
step: 1  E_total = -108.935823679  
B         0.00203        -0.00058         0.00120
H         1.18591         0.00774        -0.00215
H        -0.59818         1.03642        -0.00312
H        -0.61081        -1.04186        -0.00154
4
step: 2  E_total = -108.927722274  
B         0.00387        -0.00110         0.00183
H         1.17138         0.01662        -0.00412
H        -0.59488         1.03973        -0.00445
H        -0.61922        -1.05045        -0.00524
4
step: 3  E_total = -108.938077813  
B         0.00557        -0.00164         0.00234
H         1.15420         0.02507        -0.00656
H        -0.59034         1.04053        -0.00649
H        -0.62661        -1.05630        -0.00881
4
step: 4  E_total = -108.919482222  
B         0.00738        -0.00205         0.00345
H         1.13508         0.03355        -0.00884
H        -0.58380         1.03853        -0.00812
H        -0.63037        -1.05869        -0.01154
4
step: 5  E_total = -108.949185929  
B         0.00850        -0.00253         0.00411
H         1.11524         0.04140        -0.01223
H        -0.57450         1.03389        -0.01164
H        -0.63080        -1.05746        -0.01355
4
step: 6  E_total = -108.927365707  
B         0.00888        -0.00294         0.00495
H         1.09664         0.04925        -0.01540
H        -0.56441         1.02638        -0.01366
H        -0.63000        -1.05270        -0.01682
4
step: 7  E_total = -108.935393290  
B         0.00945        -0.00339         0.00561
H         1.07788         0.05678        -0.01802
H        -0.55180         1.01611        -0.01585
H        -0.62607        -1.04334        -0.01993
4
step: 8  E_total = -108.913517255  
B         0.00933        -0.00411         0.00637
H         1.06110         0.06464        -0.01968
H        -0.53828         1.00309        -0.01794
H        -0.62222        -1.03140        -0.02169
4
step: 9  E_total = -108.933975398  
B         0.00883        -0.00487         0.00723
H         1.04585         0.07280        -0.02058
H        -0.52533         0.98773        -0.02024
H        -0.61628        -1.01693        -0.02296
4
step: 10  E_total = -108.985988180  
B         0.00813        -0.00547         0.00839
H         1.03445         0.07812        -0.02230
H        -0.51353         0.97376        -0.02265
H        -0.60999        -1.00093        -0.02339
