4
step: 1  E_total = -108.930089740  
B        -0.00087         0.00186        -0.00046
H         1.18731        -0.00443         0.00164
H        -0.58708         1.01379         0.00164
H        -0.59092        -1.02926         0.00164
4
step: 2  E_total = -108.930853938  
B        -0.00171         0.00366        -0.00091
H         1.17163        -0.00883         0.00326
H        -0.57292         0.99547         0.00327
H        -0.58038        -1.02594         0.00326
4
step: 3  E_total = -108.931606958  
B        -0.00251         0.00537        -0.00136
H         1.15347        -0.01315         0.00485
H        -0.55798         0.97576         0.00485
H        -0.56857        -1.02022         0.00485
4
step: 4  E_total = -108.932205097  
B        -0.00326         0.00692        -0.00179
H         1.13346        -0.01737         0.00638
H        -0.54280         0.95551         0.00639
H        -0.55571        -1.01236         0.00638
4
step: 5  E_total = -108.932482414  
B        -0.00394         0.00825        -0.00219
H         1.11233        -0.02146         0.00784
H        -0.52798         0.93571         0.00787
H        -0.54212        -1.00273         0.00783
4
step: 6  E_total = -108.932299929  
B        -0.00454         0.00930        -0.00258
H         1.09098        -0.02541         0.00922
H        -0.51417         0.91742         0.00928
H        -0.52812        -0.99179         0.00919
4
step: 7  E_total = -108.931615929  
B        -0.00506         0.01003        -0.00294
H         1.07035        -0.02920         0.01050
H        -0.50203         0.90176         0.01061
H        -0.51410        -0.98008         0.01046
4
step: 8  E_total = -108.930544442  
B        -0.00548         0.01038        -0.00328
H         1.05147        -0.03283         0.01169
H        -0.49220         0.88977         0.01188
H        -0.50047        -0.96823         0.01160
4
step: 9  E_total = -108.929355307  
B        -0.00583         0.01034        -0.00359
H         1.03534        -0.03629         0.01277
H        -0.48518         0.88231         0.01308
H        -0.48768        -0.95689         0.01263
4
step: 10  E_total = -108.928391563  
B        -0.00610         0.00991        -0.00387
H         1.02290        -0.03957         0.01375
H        -0.48133         0.88001         0.01420
H        -0.47617        -0.94675         0.01352
