4
step: 1  E_total = -108.215611224  
B        -0.01643        -0.00042         0.00228
H         1.39138         0.00828        -0.00732
H        -0.60085         1.02546        -0.00855
H        -0.61429        -1.02920        -0.00855
4
step: 2  E_total = -108.215611224  
B        -0.01795        -0.00086         0.00453
H         1.39025         0.01646        -0.01455
H        -0.58553         1.01852        -0.01700
H        -0.61218        -1.02579        -0.01700
4
step: 3  E_total = -108.215611224  
B        -0.01910        -0.00131         0.00673
H         1.38205         0.02446        -0.02158
H        -0.56889         1.00949        -0.02529
H        -0.60833        -1.01988        -0.02527
4
step: 4  E_total = -108.215611224  
B        -0.01984        -0.00180         0.00885
H         1.36688         0.03218        -0.02833
H        -0.55125         0.99881        -0.03332
H        -0.60284        -1.01168        -0.03329
4
step: 5  E_total = -108.215611224  
B        -0.02014        -0.00234         0.01088
H         1.34492         0.03951        -0.03469
H        -0.53300         0.98700        -0.04105
H        -0.59588        -1.00146        -0.04095
4
step: 6  E_total = -108.215611224  
B        -0.01998        -0.00293         0.01279
H         1.31649         0.04637        -0.04057
H        -0.51456         0.97466        -0.04840
H        -0.58768        -0.98958        -0.04819
4
step: 7  E_total = -108.215611224  
B        -0.01931        -0.00360         0.01456
H         1.28203         0.05266        -0.04588
H        -0.49640         0.96246        -0.05534
H        -0.57850        -0.97650        -0.05494
4
step: 8  E_total = -108.215611224  
B        -0.01814        -0.00435         0.01618
H         1.24217         0.05827        -0.05054
H        -0.47898         0.95113        -0.06184
H        -0.56866        -0.96273        -0.06115
4
step: 9  E_total = -108.215611224  
B        -0.01645        -0.00519         0.01763
H         1.19778         0.06312        -0.05448
H        -0.46281         0.94139        -0.06789
H        -0.55854        -0.94886        -0.06676
4
step: 10  E_total = -108.215611224  
B        -0.01428        -0.00611         0.01891
H         1.15003         0.06714        -0.05763
H        -0.44836         0.93394        -0.07346
H        -0.54855        -0.93554        -0.07176
