4
step: 1  E_total = -108.903912401  
B         0.00072        -0.00103        -0.00346
H         1.19147         0.00257         0.01235
H        -0.60042         1.03532         0.01237
H        -0.59851        -1.02517         0.01161
4
step: 2  E_total = -108.905652254  
B         0.00125        -0.00230        -0.00684
H         1.17965         0.00535         0.02399
H        -0.59849         1.03709         0.02429
H        -0.59456        -1.01801         0.02380
4
step: 3  E_total = -108.912172623  
B         0.00166        -0.00326        -0.01026
H         1.16644         0.00779         0.03511
H        -0.59530         1.03520         0.03663
H        -0.58961        -1.00844         0.03547
4
step: 4  E_total = -108.927869866  
B         0.00231        -0.00400        -0.01348
H         1.15152         0.01038         0.04670
H        -0.59115         1.03091         0.04883
H        -0.58414        -0.99667         0.04781
4
step: 5  E_total = -108.922184644  
B         0.00292        -0.00478        -0.01699
H         1.13531         0.01234         0.05808
H        -0.58606         1.02399         0.06058
H        -0.57842        -0.98408         0.05921
4
step: 6  E_total = -108.933382365  
B         0.00367        -0.00545        -0.01983
H         1.11782         0.01412         0.06890
H        -0.57955         1.01393         0.07137
H        -0.57133        -0.96998         0.06977
4
step: 7  E_total = -108.955980616  
B         0.00426        -0.00603        -0.02255
H         1.09954         0.01549         0.07839
H        -0.57173         1.00285         0.08014
H        -0.56441        -0.95530         0.07877
4
step: 8  E_total = -108.926086340  
B         0.00450        -0.00641        -0.02479
H         1.08224         0.01663         0.08718
H        -0.56441         0.98965         0.08827
H        -0.55717        -0.93979         0.08744
4
step: 9  E_total = -108.918261777  
B         0.00440        -0.00652        -0.02722
H         1.06594         0.01788         0.09593
H        -0.55664         0.97521         0.09568
H        -0.55071        -0.92489         0.09565
4
step: 10  E_total = -108.936665221  
B         0.00425        -0.00658        -0.02906
H         1.05158         0.01899         0.10341
H        -0.54737         0.95989         0.10241
H        -0.54383        -0.91150         0.10371
