4
step: 1  E_total = -475.368404653  
O        -0.61146        -0.00020        -0.00049
C         0.61312         0.00118         0.00138
H         1.19934         0.92653        -0.00577
H         1.20076        -0.93537        -0.00578
4
step: 2  E_total = -475.363542299  
O        -0.61264        -0.00036        -0.00091
C         0.61616         0.00241         0.00271
H         1.18880         0.91293        -0.01254
H         1.19148        -0.93142        -0.01144
4
step: 3  E_total = -475.374838900  
O        -0.61366        -0.00057        -0.00138
C         0.61897         0.00323         0.00406
H         1.17924         0.90136        -0.01785
H         1.18340        -0.92757        -0.01809
4
step: 4  E_total = -475.374841184  
O        -0.61489        -0.00079        -0.00161
C         0.62164         0.00363         0.00537
H         1.17126         0.89288        -0.02398
H         1.17558        -0.92449        -0.02335
4
step: 5  E_total = -475.369009696  
O        -0.61617        -0.00077        -0.00202
C         0.62440         0.00425         0.00686
H         1.16575         0.88760        -0.02948
H         1.16978        -0.92322        -0.02892
4
step: 6  E_total = -475.370082931  
O        -0.61734        -0.00103        -0.00245
C         0.62670         0.00454         0.00816
H         1.16257         0.88506        -0.03479
H         1.16536        -0.92417        -0.03421
4
step: 7  E_total = -475.372876079  
O        -0.61835        -0.00118        -0.00278
C         0.62847         0.00467         0.00924
H         1.16121         0.88731        -0.03947
H         1.16175        -0.92537        -0.03878
4
step: 8  E_total = -475.369323159  
O        -0.61901        -0.00120        -0.00288
C         0.62980         0.00442         0.01037
H         1.16172         0.89317        -0.04529
H         1.15952        -0.92747        -0.04340
4
step: 9  E_total = -475.374059965  
O        -0.61977        -0.00106        -0.00303
C         0.63089         0.00411         0.01137
H         1.16435         0.90218        -0.05043
H         1.15848        -0.93137        -0.04779
4
step: 10  E_total = -475.377841750  
O        -0.62021        -0.00099        -0.00314
C         0.63145         0.00364         0.01236
H         1.16872         0.91328        -0.05612
H         1.15931        -0.93638        -0.05192
