4
step: 1  E_total = -474.105581576  
O         0.69605        -0.00046        -0.00013
C        -0.70885         0.00233         0.00058
H        -1.29976         0.92507        -0.00241
H        -1.30198        -0.94553        -0.00241
4
step: 2  E_total = -474.105581576  
O         0.69659        -0.00091        -0.00026
C        -0.71058         0.00457         0.00115
H        -1.29301         0.91045        -0.00481
H        -1.29691        -0.95046        -0.00481
4
step: 3  E_total = -474.105581576  
O         0.69593        -0.00136        -0.00039
C        -0.71082         0.00666         0.00172
H        -1.28597         0.89700        -0.00718
H        -1.29049        -0.95469        -0.00716
4
step: 4  E_total = -474.105581576  
O         0.69407        -0.00180        -0.00051
C        -0.70955         0.00849         0.00227
H        -1.27921         0.88556        -0.00950
H        -1.28275        -0.95816        -0.00946
4
step: 5  E_total = -474.105581576  
O         0.69102        -0.00222        -0.00063
C        -0.70675         0.01001         0.00280
H        -1.27321         0.87687        -0.01179
H        -1.27373        -0.96083        -0.01166
4
step: 6  E_total = -474.105581576  
O         0.68680        -0.00263        -0.00074
C        -0.70241         0.01116         0.00331
H        -1.26836         0.87148        -0.01403
H        -1.26349        -0.96269        -0.01377
4
step: 7  E_total = -474.105581576  
O         0.68146        -0.00302        -0.00084
C        -0.69653         0.01191         0.00380
H        -1.26492         0.86974        -0.01622
H        -1.25213        -0.96377        -0.01576
4
step: 8  E_total = -474.105581576  
O         0.67503        -0.00338        -0.00093
C        -0.68916         0.01226         0.00426
H        -1.26297         0.87168        -0.01836
H        -1.23977        -0.96412        -0.01762
4
step: 9  E_total = -474.105581576  
O         0.66757        -0.00372        -0.00102
C        -0.68038         0.01223         0.00469
H        -1.26240         0.87707        -0.02045
H        -1.22657        -0.96382        -0.01933
4
step: 10  E_total = -474.105581576  
O         0.65917        -0.00402        -0.00109
C        -0.67030         0.01187         0.00509
H        -1.26296         0.88543        -0.02245
H        -1.21271        -0.96299        -0.02088
