4
step: 1  E_total = -474.209045006  
O         0.69208        -0.00048         0.00005
C        -0.70317        -0.00011        -0.00024
H        -1.31184         0.94847         0.00101
H        -1.29475        -0.93955         0.00101
4
step: 2  E_total = -474.209045006  
O         0.68869        -0.00096         0.00011
C        -0.69928        -0.00016        -0.00048
H        -1.31638         0.95598         0.00201
H        -1.28268        -0.93878         0.00201
4
step: 3  E_total = -474.209045006  
O         0.68415        -0.00143         0.00016
C        -0.69409        -0.00013        -0.00072
H        -1.31908         0.96215         0.00300
H        -1.26972        -0.93785         0.00300
4
step: 4  E_total = -474.209045006  
O         0.67849        -0.00189         0.00021
C        -0.68764         0.00002        -0.00095
H        -1.31975         0.96666         0.00395
H        -1.25609        -0.93696         0.00397
4
step: 5  E_total = -474.209045006  
O         0.67177        -0.00233         0.00026
C        -0.67999         0.00033        -0.00117
H        -1.31826         0.96927         0.00488
H        -1.24202        -0.93628         0.00491
4
step: 6  E_total = -474.209045006  
O         0.66405        -0.00274         0.00031
C        -0.67122         0.00081        -0.00138
H        -1.31454         0.96984         0.00575
H        -1.22773        -0.93598         0.00581
4
step: 7  E_total = -474.209045006  
O         0.65543        -0.00313         0.00035
C        -0.66143         0.00147        -0.00158
H        -1.30857         0.96831         0.00657
H        -1.21344        -0.93621         0.00668
4
step: 8  E_total = -474.209045006  
O         0.64602        -0.00348         0.00039
C        -0.65077         0.00232        -0.00177
H        -1.30042         0.96470         0.00732
H        -1.19935        -0.93706         0.00751
4
step: 9  E_total = -474.209045006  
O         0.63596        -0.00380         0.00043
C        -0.63938         0.00334        -0.00194
H        -1.29020         0.95914         0.00801
H        -1.18565        -0.93860         0.00829
4
step: 10  E_total = -474.209045006  
O         0.62543        -0.00408         0.00046
C        -0.62746         0.00452        -0.00209
H        -1.27812         0.95183         0.00862
H        -1.17251        -0.94087         0.00902
