4
step: 1  E_total = -109.032738892  
B         0.00026        -0.00142        -0.00138
H         1.19680         0.00076         0.00493
H        -0.60358         1.04158         0.00493
H        -0.59605        -1.02714         0.00493
4
step: 2  E_total = -109.032803784  
B         0.00053        -0.00279        -0.00274
H         1.19034         0.00152         0.00980
H        -0.60540         1.05017         0.00980
H        -0.59060        -1.02172         0.00980
4
step: 3  E_total = -109.033010306  
B         0.00078        -0.00409        -0.00407
H         1.18082         0.00228         0.01455
H        -0.60536         1.05552         0.01455
H        -0.58379        -1.01394         0.01456
4
step: 4  E_total = -109.033336891  
B         0.00100        -0.00527        -0.00535
H         1.16854         0.00305         0.01914
H        -0.60341         1.05751         0.01912
H        -0.57582        -1.00408         0.01915
4
step: 5  E_total = -109.033746938  
B         0.00118        -0.00629        -0.00657
H         1.15390         0.00383         0.02351
H        -0.59958         1.05609         0.02346
H        -0.56695        -0.99251         0.02354
4
step: 6  E_total = -109.034187553  
B         0.00130        -0.00711        -0.00772
H         1.13742         0.00463         0.02762
H        -0.59392         1.05134         0.02751
H        -0.55747        -0.97971         0.02767
4
step: 7  E_total = -109.034591498  
B         0.00136        -0.00770        -0.00878
H         1.11972         0.00544         0.03144
H        -0.58656         1.04338         0.03121
H        -0.54774        -0.96620         0.03151
4
step: 8  E_total = -109.034885258  
B         0.00133        -0.00804        -0.00974
H         1.10152         0.00630         0.03492
H        -0.57767         1.03249         0.03453
H        -0.53813        -0.95259         0.03505
4
step: 9  E_total = -109.035004704  
B         0.00121        -0.00808        -0.01060
H         1.08361         0.00719         0.03807
H        -0.56750         1.01902         0.03742
H        -0.52905        -0.93955         0.03825
4
step: 10  E_total = -109.034915544  
B         0.00097        -0.00782        -0.01136
H         1.06684         0.00813         0.04086
H        -0.55635         1.00344         0.03985
H        -0.52090        -0.92774         0.04111
