4
step: 1  E_total = -108.318753216  
B        -0.01428        -0.00152        -0.00055
H         1.38834         0.00986         0.00177
H        -0.61275         1.03637         0.00207
H        -0.62242        -1.02997         0.00207
4
step: 2  E_total = -108.318753216  
B        -0.01369        -0.00301        -0.00110
H         1.38421         0.01960         0.00352
H        -0.60905         1.03993         0.00412
H        -0.62833        -1.02724         0.00412
4
step: 3  E_total = -108.318753216  
B        -0.01281        -0.00447        -0.00163
H         1.37308         0.02912         0.00523
H        -0.60347         1.04061         0.00612
H        -0.63225        -1.02183         0.00612
4
step: 4  E_total = -108.318753216  
B        -0.01164        -0.00586        -0.00214
H         1.35508         0.03831         0.00686
H        -0.59608         1.03840         0.00805
H        -0.63419        -1.01384         0.00806
4
step: 5  E_total = -108.318753216  
B        -0.01019        -0.00718        -0.00263
H         1.33043         0.04707         0.00840
H        -0.58698         1.03341         0.00991
H        -0.63420        -1.00345         0.00991
4
step: 6  E_total = -108.318753216  
B        -0.00847        -0.00841        -0.00309
H         1.29950         0.05529         0.00983
H        -0.57633         1.02580         0.01165
H        -0.63237        -0.99092         0.01166
4
step: 7  E_total = -108.318753216  
B        -0.00649        -0.00952        -0.00351
H         1.26280         0.06286         0.01112
H        -0.56434         1.01584         0.01328
H        -0.62887        -0.97660         0.01328
4
step: 8  E_total = -108.318753216  
B        -0.00427        -0.01051        -0.00390
H         1.22107         0.06969         0.01226
H        -0.55130         1.00389         0.01476
H        -0.62392        -0.96090         0.01477
4
step: 9  E_total = -108.318753216  
B        -0.00186        -0.01135        -0.00424
H         1.17532         0.07570         0.01323
H        -0.53754         0.99043         0.01609
H        -0.61780        -0.94435         0.01612
4
step: 10  E_total = -108.318753216  
B         0.00069        -0.01206        -0.00453
H         1.12690         0.08085         0.01403
H        -0.52346         0.97603         0.01726
H        -0.61086        -0.92752         0.01730
