4
step: 1  T=      504.336K  Ek=  0.260761678  Ep= -1.360431424  E_gap=    11.559033  Err=       0.0000000000000000  time_stamp= 1758753724.4831
O        -0.61378         0.00034         0.00048
C         0.61420         0.00058        -0.00194
H         1.20448         0.93581         0.00773
H         1.21942        -0.94817         0.00773
4
step: 2  T=      475.222K  Ek=  0.245708626  Ep= -1.346130268  E_gap=    11.527071  Err=       0.0000000000000000  time_stamp= 1758753724.5346
O        -0.61734         0.00068         0.00095
C         0.61860         0.00110        -0.00385
H         1.19930         0.93180         0.01539
H         1.22857        -0.95574         0.01538
4
step: 3  T=      426.588K  Ek=  0.220563029  Ep= -1.321501059  E_gap=    11.499584  Err=       0.0000000000000000  time_stamp= 1758753724.6142
O        -0.62079         0.00100         0.00142
C         0.62290         0.00152        -0.00573
H         1.19450         0.92830         0.02291
H         1.23694        -0.96235         0.02288
4
step: 4  T=      366.130K  Ek=  0.189304070  Ep= -1.289250159  E_gap=    11.476879  Err=       0.0000000000000000  time_stamp= 1758753724.6661
O        -0.62407         0.00131         0.00187
C         0.62701         0.00178        -0.00756
H         1.19028         0.92559         0.03028
H         1.24428        -0.96769         0.03016
4
step: 5  T=      301.157K  Ek=  0.155710217  Ep= -1.254642244  E_gap=    11.453797  Err=       0.0000000000000000  time_stamp= 1758753724.7206
O        -0.62712         0.00160         0.00231
C         0.63084         0.00185        -0.00934
H         1.18684         0.92393         0.03747
H         1.25037        -0.97151         0.03718
4
step: 6  T=      238.557K  Ek=  0.123343375  Ep= -1.221916425  E_gap=    11.424520  Err=       0.0000000000000000  time_stamp= 1758753724.7762
O        -0.62986         0.00187         0.00274
C         0.63431         0.00171        -0.01105
H         1.18430         0.92353         0.04446
H         1.25505        -0.97361         0.04387
4
step: 7  T=      184.754K  Ek=  0.095525141  Ep= -1.193993196  E_gap=    11.391449  Err=       0.0000000000000000  time_stamp= 1758753724.8306
O        -0.63223         0.00212         0.00314
C         0.63734         0.00132        -0.01268
H         1.18276         0.92451         0.05119
H         1.25823        -0.97389         0.05014
4
step: 8  T=      144.650K  Ek=  0.074789644  Ep= -1.173435583  E_gap=    11.364865  Err=       0.0000000000000000  time_stamp= 1758753724.8812
O        -0.63420         0.00234         0.00351
C         0.63987         0.00070        -0.01420
H         1.18225         0.92689         0.05763
H         1.25987        -0.97230         0.05593
4
step: 9  T=      120.331K  Ek=  0.062215998  Ep= -1.161062908  E_gap=    11.351555  Err=       0.0000000000000000  time_stamp= 1758753724.9340
O        -0.63572         0.00253         0.00385
C         0.64184        -0.00015        -0.01561
H         1.18272         0.93058         0.06372
H         1.25998        -0.96890         0.06116
4
step: 10  T=      110.879K  Ek=  0.057328804  Ep= -1.156356676  E_gap=    11.346730  Err=       0.0000000000000000  time_stamp= 1758753724.9877
O        -0.63677         0.00268         0.00416
C         0.64324        -0.00119        -0.01689
H         1.18405         0.93541         0.06943
H         1.25865        -0.96384         0.06580
4
step: 11  T=      113.313K  Ek=  0.058587326  Ep= -1.157672878  E_gap=    11.341284  Err=       0.0000000000000000  time_stamp= 1758753725.0414
O        -0.63732         0.00281         0.00443
C         0.64403        -0.00239        -0.01803
H         1.18608         0.94111         0.07470
H         1.25598        -0.95732         0.06983
4
step: 12  T=      123.744K  Ek=  0.063980766  Ep= -1.163004292  E_gap=    11.334086  Err=       0.0000000000000000  time_stamp= 1758753725.0956
O        -0.63738         0.00292         0.00467
C         0.64421        -0.00370        -0.01904
H         1.18860         0.94737         0.07951
H         1.25214        -0.94960         0.07324
4
step: 13  T=      138.219K  Ek=  0.071464920  Ep= -1.170581604  E_gap=    11.331695  Err=       0.0000000000000000  time_stamp= 1758753725.1480
O        -0.63693         0.00299         0.00487
C         0.64378        -0.00506        -0.01989
H         1.19139         0.95384         0.08378
H         1.24737        -0.94101         0.07601
4
step: 14  T=      153.478K  Ek=  0.079354157  Ep= -1.178476147  E_gap=    11.337002  Err=       0.0000000000000000  time_stamp= 1758753725.2004
O        -0.63598         0.00304         0.00502
C         0.64273        -0.00642        -0.02059
H         1.19425         0.96018         0.08745
H         1.24194        -0.93195         0.07814
4
step: 15  T=      167.732K  Ek=  0.086724366  Ep= -1.185875434  E_gap=    11.344993  Err=       0.0000000000000000  time_stamp= 1758753725.2530
O        -0.63454         0.00307         0.00514
C         0.64108        -0.00771        -0.02111
H         1.19696         0.96605         0.09045
H         1.23614        -0.92286         0.07964
4
step: 16  T=      181.029K  Ek=  0.093599066  Ep= -1.192867742  E_gap=    11.352375  Err=       0.0000000000000000  time_stamp= 1758753725.3054
O        -0.63266         0.00307         0.00520
C         0.63886        -0.00886        -0.02147
H         1.19930         0.97114         0.09275
H         1.23031        -0.91423         0.08052
4
step: 17  T=      194.825K  Ek=  0.100732556  Ep= -1.199887525  E_gap=    11.364468  Err=       0.0000000000000000  time_stamp= 1758753725.3593
O        -0.63035         0.00305         0.00522
C         0.63609        -0.00982        -0.02165
H         1.20113         0.97520         0.09429
H         1.22476        -0.90649         0.08082
4
step: 18  T=      211.109K  Ek=  0.109151726  Ep= -1.208235655  E_gap=    11.387621  Err=       0.0000000000000000  time_stamp= 1758753725.4129
O        -0.62766         0.00301         0.00520
C         0.63284        -0.01055        -0.02166
H         1.20230         0.97800         0.09505
H         1.21980        -0.90007         0.08058
4
step: 19  T=      231.594K  Ek=  0.119743373  Ep= -1.218856183  E_gap=    11.418528  Err=       0.0000000000000000  time_stamp= 1758753725.4650
O        -0.62465         0.00295         0.00513
C         0.62914        -0.01099        -0.02151
H         1.20272         0.97941         0.09503
H         1.21568        -0.89530         0.07983
4
step: 20  T=      257.095K  Ek=  0.132928456  Ep= -1.232155646  E_gap=    11.447265  Err=       0.0000000000000000  time_stamp= 1758753725.5163
O        -0.62139         0.00288         0.00502
C         0.62508        -0.01113        -0.02119
H         1.20234         0.97934         0.09421
H         1.21259        -0.89242         0.07860
