4
step: 1  E_total = -109.032933861  
B        -0.00046         0.00084        -0.00064
H         1.19292         0.00347         0.00229
H        -0.58832         1.02734         0.00229
H        -0.59964        -1.03985         0.00229
4
step: 2  E_total = -109.033185408  
B        -0.00092         0.00165        -0.00127
H         1.18268         0.00690         0.00455
H        -0.57525         1.02219         0.00455
H        -0.59761        -1.04677         0.00455
4
step: 3  E_total = -109.033553944  
B        -0.00137         0.00238        -0.00189
H         1.16962         0.01023         0.00676
H        -0.56109         1.01482         0.00676
H        -0.59387        -1.05061         0.00676
4
step: 4  E_total = -109.033996393  
B        -0.00182         0.00301        -0.00249
H         1.15416         0.01342         0.00889
H        -0.54615         1.00560         0.00889
H        -0.58847        -1.05132         0.00888
4
step: 5  E_total = -109.034449774  
B        -0.00228         0.00349        -0.00305
H         1.13684         0.01642         0.01091
H        -0.53084         0.99500         0.01093
H        -0.58150        -1.04891         0.01089
4
step: 6  E_total = -109.034834611  
B        -0.00277         0.00380        -0.00358
H         1.11832         0.01919         0.01282
H        -0.51556         0.98359         0.01284
H        -0.57309        -1.04352         0.01277
4
step: 7  E_total = -109.035066702  
B        -0.00328         0.00389        -0.00407
H         1.09936         0.02168         0.01459
H        -0.50079         0.97199         0.01463
H        -0.56344        -1.03536         0.01448
4
step: 8  E_total = -109.035078705  
B        -0.00383         0.00373        -0.00452
H         1.08080         0.02384         0.01620
H        -0.48698         0.96089         0.01627
H        -0.55279        -1.02477         0.01601
4
step: 9  E_total = -109.034847060  
B        -0.00443         0.00331        -0.00492
H         1.06354         0.02566         0.01766
H        -0.47463         0.95100         0.01776
H        -0.54145        -1.01218         0.01734
4
step: 10  E_total = -109.034412296  
B        -0.00509         0.00261        -0.00527
H         1.04847         0.02709         0.01896
H        -0.46415         0.94298         0.01910
H        -0.52977        -0.99811         0.01847
4
step: 11  E_total = -109.033877784  
B        -0.00581         0.00165        -0.00557
H         1.03641         0.02813         0.02009
H        -0.45592         0.93743         0.02028
H        -0.51815        -0.98321         0.01936
4
step: 12  E_total = -109.033379760  
B        -0.00660         0.00043        -0.00582
H         1.02806         0.02879         0.02106
H        -0.45022         0.93478         0.02130
H        -0.50704        -0.96819         0.02004
4
step: 13  E_total = -109.033038923  
B        -0.00744        -0.00098        -0.00602
H         1.02391         0.02906         0.02187
H        -0.44721         0.93528         0.02216
H        -0.49688        -0.95384         0.02049
4
step: 14  E_total = -109.032919013  
B        -0.00831        -0.00252        -0.00616
H         1.02421         0.02897         0.02252
H        -0.44691         0.93897         0.02284
H        -0.48815        -0.94096         0.02073
4
step: 15  E_total = -109.033015661  
B        -0.00917        -0.00409        -0.00626
H         1.02892         0.02855         0.02299
H        -0.44925         0.94567         0.02335
H        -0.48128        -0.93031         0.02076
4
step: 16  E_total = -109.033277513  
B        -0.00999        -0.00562        -0.00630
H         1.03775         0.02781         0.02328
H        -0.45401         0.95499         0.02366
H        -0.47662        -0.92255         0.02060
4
step: 17  E_total = -109.033638607  
B        -0.01070        -0.00699        -0.00628
H         1.05015         0.02680         0.02338
H        -0.46088         0.96638         0.02377
H        -0.47447        -0.91818         0.02025
4
step: 18  E_total = -109.034037579  
B        -0.01127        -0.00813        -0.00622
H         1.06538         0.02552         0.02327
H        -0.46951         0.97919         0.02366
H        -0.47495        -0.91750         0.01973
4
step: 19  E_total = -109.034417589  
B        -0.01166        -0.00897        -0.00609
H         1.08262         0.02400         0.02295
H        -0.47950         0.99271         0.02332
H        -0.47808        -0.92054         0.01905
4
step: 20  E_total = -109.034720672  
B        -0.01182        -0.00946        -0.00591
H         1.10098         0.02225         0.02240
H        -0.49043         1.00623         0.02274
H        -0.48372        -0.92707         0.01820
