4
step: 1  T=      503.179K  Ek=  0.260163484  Ep= -1.360613758  E_gap=    11.559500  Err=       0.0000000000000000  time_stamp= 1758753725.6375
O        -0.61375         0.00032         0.00045
C         0.61415         0.00059        -0.00186
H         1.20457         0.93573         0.00731
H         1.21933        -0.94786         0.00765
4
step: 2  T=      486.938K  Ek=  0.251766628  Ep= -1.345797331  E_gap=    11.526791  Err=       0.0000000000000000  time_stamp= 1758753725.7039
O        -0.61737         0.00065         0.00082
C         0.61857         0.00115        -0.00362
H         1.19932         0.93174         0.01435
H         1.22931        -0.95574         0.01587
4
step: 3  T=      438.084K  Ek=  0.226507098  Ep= -1.320380761  E_gap=    11.498430  Err=       0.0000000000000000  time_stamp= 1758753725.7605
O        -0.62091         0.00107         0.00119
C         0.62300         0.00145        -0.00531
H         1.19414         0.92891         0.02145
H         1.23791        -0.96313         0.02289
4
step: 4  T=      365.934K  Ek=  0.189202507  Ep= -1.285073749  E_gap=    11.476100  Err=       0.0000000000000000  time_stamp= 1758753725.8140
O        -0.62413         0.00147         0.00161
C         0.62717         0.00167        -0.00693
H         1.18751         0.92690         0.02782
H         1.24604        -0.97019         0.02915
4
step: 5  T=      289.502K  Ek=  0.149684044  Ep= -1.249187256  E_gap=    11.454681  Err=       0.0000000000000000  time_stamp= 1758753725.8679
O        -0.62704         0.00178         0.00203
C         0.63104         0.00171        -0.00851
H         1.18156         0.92585         0.03402
H         1.25204        -0.97450         0.03526
4
step: 6  T=      219.259K  Ek=  0.113365786  Ep= -1.214387462  E_gap=    11.426031  Err=       0.0000000000000000  time_stamp= 1758753725.9228
O        -0.62976         0.00207         0.00239
C         0.63469         0.00161        -0.00990
H         1.17742         0.92655         0.03891
H         1.25581        -0.97871         0.04110
4
step: 7  T=      162.499K  Ek=  0.084018367  Ep= -1.185579414  E_gap=    11.394783  Err=       0.0000000000000000  time_stamp= 1758753725.9774
O        -0.63209         0.00227         0.00273
C         0.63789         0.00142        -0.01116
H         1.17484         0.92805         0.04406
H         1.25725        -0.98103         0.04555
4
step: 8  T=      139.935K  Ek=  0.072352047  Ep= -1.166972880  E_gap=    11.370233  Err=       0.0000000000000000  time_stamp= 1758753726.0298
O        -0.63415         0.00248         0.00309
C         0.64084         0.00077        -0.01224
H         1.17335         0.93180         0.04757
H         1.25632        -0.98037         0.04917
4
step: 9  T=      127.797K  Ek=  0.066076205  Ep= -1.154892570  E_gap=    11.357688  Err=       0.0000000000000000  time_stamp= 1758753726.0780
O        -0.63587         0.00260         0.00335
C         0.64338        -0.00005        -0.01323
H         1.17266         0.93689         0.05170
H         1.25416        -0.97764         0.05279
4
step: 10  T=      115.278K  Ek=  0.059603407  Ep= -1.148068644  E_gap=    11.352265  Err=       0.0000000000000000  time_stamp= 1758753726.1305
O        -0.63733         0.00278         0.00356
C         0.64557        -0.00111        -0.01403
H         1.17317         0.94243         0.05562
H         1.25054        -0.97331         0.05512
