4
step: 1  E_total = -472.535009305  
O        -0.61228         0.00087         0.00045
C         0.61205        -0.00289        -0.00182
H         1.21041         0.95388         0.00727
H         1.21524        -0.93329         0.00727
4
step: 2  E_total = -472.535811186  
O        -0.61470         0.00174         0.00090
C         0.61481        -0.00572        -0.00363
H         1.21054         0.96696         0.01451
H         1.22061        -0.92645         0.01452
4
step: 3  E_total = -472.535883549  
O        -0.61740         0.00262         0.00134
C         0.61801        -0.00845        -0.00543
H         1.20992         0.97879         0.02169
H         1.22602        -0.91968         0.02172
4
step: 4  E_total = -472.535110508  
O        -0.62033         0.00349         0.00179
C         0.62157        -0.01102        -0.00722
H         1.20830         0.98904         0.02878
H         1.23157        -0.91315         0.02889
4
step: 5  E_total = -472.534478657  
O        -0.62340         0.00437         0.00223
C         0.62542        -0.01341        -0.00899
H         1.20552         0.99743         0.03575
H         1.23736        -0.90706         0.03600
4
step: 6  E_total = -472.534276260  
O        -0.62656         0.00525         0.00267
C         0.62945        -0.01557        -0.01074
H         1.20147         1.00373         0.04255
H         1.24350        -0.90161         0.04307
4
step: 7  E_total = -472.534551451  
O        -0.62974         0.00613         0.00311
C         0.63359        -0.01747        -0.01246
H         1.19609         1.00781         0.04914
H         1.25003        -0.89697         0.05006
4
step: 8  E_total = -472.535012886  
O        -0.63286         0.00700         0.00353
C         0.63772        -0.01909        -0.01414
H         1.18941         1.00963         0.05548
H         1.25699        -0.89326         0.05699
4
step: 9  E_total = -472.535193507  
O        -0.63587         0.00786         0.00395
C         0.64177        -0.02043        -0.01578
H         1.18148         1.00923         0.06153
H         1.26437        -0.89057         0.06386
4
step: 10  E_total = -472.534593385  
O        -0.63870         0.00870         0.00436
C         0.64565        -0.02148        -0.01738
H         1.17240         1.00675         0.06729
H         1.27213        -0.88890         0.07065
