4
step: 1  E_total = -108.929533281  
B        -0.00066         0.00119        -0.00091
H         1.19068         0.00491         0.00324
H        -0.58381         1.02680         0.00324
H        -0.59983        -1.04448         0.00324
4
step: 2  E_total = -108.929952443  
B        -0.00131         0.00233        -0.00180
H         1.17827         0.00975         0.00644
H        -0.56632         1.02116         0.00644
H        -0.59794        -1.05592         0.00644
4
step: 3  E_total = -108.930495313  
B        -0.00196         0.00337        -0.00267
H         1.16317         0.01446         0.00956
H        -0.54790         1.01342         0.00956
H        -0.59427        -1.06405         0.00956
4
step: 4  E_total = -108.930862344  
B        -0.00262         0.00427        -0.00352
H         1.14587         0.01896         0.01258
H        -0.52894         1.00401         0.01259
H        -0.58882        -1.06873         0.01256
4
step: 5  E_total = -108.931108214  
B        -0.00331         0.00496        -0.00432
H         1.12698         0.02319         0.01546
H        -0.50989         0.99348         0.01548
H        -0.58164        -1.06987         0.01541
4
step: 6  E_total = -108.931265534  
B        -0.00402         0.00541        -0.00508
H         1.10722         0.02707         0.01817
H        -0.49124         0.98244         0.01821
H        -0.57282        -1.06749         0.01807
4
step: 7  E_total = -108.931329894  
B        -0.00479         0.00555        -0.00578
H         1.08743         0.03054         0.02071
H        -0.47351         0.97162         0.02078
H        -0.56251        -1.06172         0.02049
4
step: 8  E_total = -108.931268688  
B        -0.00562         0.00536        -0.00642
H         1.06849         0.03355         0.02305
H        -0.45722         0.96173         0.02316
H        -0.55095        -1.05277         0.02265
4
step: 9  E_total = -108.931028836  
B        -0.00653         0.00480        -0.00700
H         1.05133         0.03604         0.02518
H        -0.44286         0.95352         0.02535
H        -0.53838        -1.04100         0.02453
4
step: 10  E_total = -108.930642173  
B        -0.00754         0.00385        -0.00751
H         1.03685         0.03798         0.02711
H        -0.43085         0.94762         0.02734
H        -0.52515        -1.02685         0.02610
4
step: 11  E_total = -108.930136050  
B        -0.00864         0.00252        -0.00796
H         1.02583         0.03936         0.02884
H        -0.42151         0.94456         0.02914
H        -0.51161        -1.01090         0.02734
4
step: 12  E_total = -108.929774906  
B        -0.00985         0.00084        -0.00833
H         1.01892         0.04019         0.03036
H        -0.41506         0.94469         0.03074
H        -0.49819        -0.99387         0.02825
4
step: 13  E_total = -108.929793836  
B        -0.01115        -0.00113        -0.00864
H         1.01651         0.04048         0.03168
H        -0.41157         0.94814         0.03213
H        -0.48537        -0.97655         0.02884
4
step: 14  E_total = -108.930038104  
B        -0.01250        -0.00328        -0.00887
H         1.01872         0.04026         0.03279
H        -0.41100         0.95478         0.03328
H        -0.47367        -0.95986         0.02910
4
step: 15  E_total = -108.930357476  
B        -0.01385        -0.00551        -0.00904
H         1.02539         0.03958         0.03367
H        -0.41320         0.96426         0.03420
H        -0.46362        -0.94475         0.02906
4
step: 16  E_total = -108.930590713  
B        -0.01515        -0.00768        -0.00913
H         1.03609         0.03848         0.03432
H        -0.41790         0.97604         0.03484
H        -0.45569        -0.93215         0.02875
4
step: 17  E_total = -108.930582085  
B        -0.01632        -0.00966        -0.00914
H         1.05015         0.03699         0.03470
H        -0.42475         0.98946         0.03518
H        -0.45032        -0.92286         0.02818
4
step: 18  E_total = -108.930456129  
B        -0.01731        -0.01132        -0.00908
H         1.06679         0.03517         0.03480
H        -0.43335         1.00381         0.03521
H        -0.44781        -0.91755         0.02738
4
step: 19  E_total = -108.930409850  
B        -0.01804        -0.01257        -0.00894
H         1.08513         0.03303         0.03460
H        -0.44332         1.01833         0.03489
H        -0.44836        -0.91659         0.02638
4
step: 20  E_total = -108.930545844  
B        -0.01847        -0.01332        -0.00871
H         1.10427         0.03060         0.03407
H        -0.45425         1.03229         0.03423
H        -0.45196        -0.92005         0.02517
