4
step: 1  E_total = -108.923851852  
B        -0.00063         0.00132        -0.00115
H         1.19116         0.00524         0.00297
H        -0.58380         1.02772         0.00344
H        -0.59911        -1.04442         0.00391
4
step: 2  E_total = -108.928761068  
B        -0.00172         0.00230        -0.00218
H         1.17850         0.01011         0.00637
H        -0.56701         1.02311         0.00733
H        -0.59649        -1.05654         0.00737
4
step: 3  E_total = -108.949620737  
B        -0.00283         0.00322        -0.00313
H         1.16279         0.01543         0.00974
H        -0.55080         1.01600         0.01104
H        -0.59209        -1.06589         0.00911
4
step: 4  E_total = -108.956534537  
B        -0.00359         0.00387        -0.00394
H         1.14586         0.02002         0.01435
H        -0.53394         1.00827         0.01424
H        -0.58651        -1.07075         0.01058
4
step: 5  E_total = -108.954943969  
B        -0.00451         0.00417        -0.00482
H         1.12698         0.02359         0.01837
H        -0.51633         0.99925         0.01594
H        -0.58013        -1.07165         0.01180
4
step: 6  E_total = -108.954327706  
B        -0.00545         0.00415        -0.00581
H         1.10645         0.02675         0.02307
H        -0.49899         0.98907         0.01680
H        -0.57201        -1.06903         0.01265
4
step: 7  E_total = -108.941478961  
B        -0.00656         0.00383        -0.00683
H         1.08531         0.03017         0.02648
H        -0.48206         0.97974         0.01709
H        -0.56201        -1.06320         0.01267
4
step: 8  E_total = -108.909037723  
B        -0.00776         0.00334        -0.00790
H         1.06498         0.03364         0.03048
H        -0.46554         0.97020         0.01719
H        -0.55050        -1.05488         0.01238
4
step: 9  E_total = -108.902848621  
B        -0.00929         0.00259        -0.00893
H         1.04587         0.03632         0.03373
H        -0.44886         0.96257         0.01641
H        -0.53878        -1.04334         0.01186
4
step: 10  E_total = -108.926119104  
B        -0.01114         0.00175        -0.00982
H         1.03070         0.03872         0.03640
H        -0.43520         0.95605         0.01557
H        -0.52710        -1.02981         0.01056
