4
step: 1  E_total = -475.478442738  
O        -0.61246         0.00021         0.00030
C         0.61258         0.00036        -0.00122
H         1.20643         0.93734         0.00485
H         1.21581        -0.94510         0.00485
4
step: 2  E_total = -475.478384370  
O        -0.61474         0.00043         0.00060
C         0.61541         0.00069        -0.00242
H         1.20311         0.93474         0.00966
H         1.22148        -0.94977         0.00966
4
step: 3  E_total = -475.478289073  
O        -0.61697         0.00063         0.00089
C         0.61821         0.00095        -0.00359
H         1.19999         0.93241         0.01437
H         1.22662        -0.95377         0.01436
4
step: 4  E_total = -475.478173610  
O        -0.61910         0.00083         0.00117
C         0.62090         0.00111        -0.00473
H         1.19723         0.93054         0.01895
H         1.23106        -0.95690         0.01890
4
step: 5  E_total = -475.478057217  
O        -0.62108         0.00101         0.00143
C         0.62343         0.00115        -0.00582
H         1.19497         0.92932         0.02335
H         1.23467        -0.95899         0.02324
4
step: 6  E_total = -475.477958223  
O        -0.62286         0.00117         0.00169
C         0.62572         0.00104        -0.00685
H         1.19331         0.92887         0.02754
H         1.23735        -0.95993         0.02732
4
step: 7  E_total = -475.477890619  
O        -0.62440         0.00132         0.00192
C         0.62771         0.00079        -0.00781
H         1.19232         0.92929         0.03148
H         1.23907        -0.95969         0.03108
4
step: 8  E_total = -475.477861399  
O        -0.62568         0.00146         0.00213
C         0.62937         0.00038        -0.00868
H         1.19203         0.93058         0.03514
H         1.23981        -0.95826         0.03450
4
step: 9  E_total = -475.477869458  
O        -0.62665         0.00157         0.00232
C         0.63065        -0.00016        -0.00947
H         1.19243         0.93273         0.03849
H         1.23960        -0.95570         0.03752
4
step: 10  E_total = -475.477906409  
O        -0.62729         0.00166         0.00248
C         0.63152        -0.00082        -0.01016
H         1.19346         0.93563         0.04149
H         1.23849        -0.95214         0.04013
4
step: 11  E_total = -475.477959055  
O        -0.62760         0.00173         0.00262
C         0.63196        -0.00158        -0.01074
H         1.19503         0.93912         0.04412
H         1.23661        -0.94773         0.04229
4
step: 12  E_total = -475.478012797  
O        -0.62757         0.00178         0.00273
C         0.63196        -0.00239        -0.01121
H         1.19701         0.94302         0.04633
H         1.23407        -0.94269         0.04399
4
step: 13  E_total = -475.478055083  
O        -0.62719         0.00181         0.00280
C         0.63152        -0.00323        -0.01156
H         1.19925         0.94711         0.04810
H         1.23104        -0.93727         0.04521
4
step: 14  E_total = -475.478078169  
O        -0.62648         0.00181         0.00285
C         0.63065        -0.00405        -0.01180
H         1.20162         0.95115         0.04941
H         1.22770        -0.93174         0.04596
4
step: 15  E_total = -475.478080717  
O        -0.62545         0.00180         0.00286
C         0.62937        -0.00480        -0.01191
H         1.20394         0.95491         0.05024
H         1.22424        -0.92639         0.04623
4
step: 16  E_total = -475.478067924  
O        -0.62411         0.00178         0.00284
C         0.62770        -0.00545        -0.01189
H         1.20608         0.95817         0.05055
H         1.22085        -0.92149         0.04604
4
step: 17  E_total = -475.478050038  
O        -0.62251         0.00173         0.00279
C         0.62568        -0.00596        -0.01176
H         1.20790         0.96075         0.05035
H         1.21771        -0.91731         0.04540
4
step: 18  E_total = -475.478039409  
O        -0.62068         0.00168         0.00271
C         0.62335        -0.00629        -0.01150
H         1.20929         0.96248         0.04963
H         1.21498        -0.91407         0.04433
4
step: 19  E_total = -475.478046651  
O        -0.61866         0.00160         0.00260
C         0.62077        -0.00644        -0.01112
H         1.21017         0.96326         0.04839
H         1.21278        -0.91195         0.04283
4
step: 20  E_total = -475.478077003  
O        -0.61649         0.00152         0.00246
C         0.61800        -0.00639        -0.01063
H         1.21047         0.96300         0.04665
H         1.21119        -0.91103         0.04093
