4
step: 1  E_total = -475.374451595  
O        -0.61329         0.00033         0.00044
C         0.61370         0.00058        -0.00157
H         1.20525         0.93620         0.00633
H         1.21827        -0.94677         0.00681
4
step: 2  E_total = -475.371544327  
O        -0.61639         0.00080         0.00083
C         0.61782         0.00100        -0.00298
H         1.20059         0.93299         0.01285
H         1.22658        -0.95388         0.01324
4
step: 3  E_total = -475.376820811  
O        -0.61930         0.00113         0.00122
C         0.62177         0.00149        -0.00448
H         1.19455         0.93036         0.01863
H         1.23415        -0.95982         0.01909
4
step: 4  E_total = -475.381313823  
O        -0.62223         0.00131         0.00163
C         0.62551         0.00175        -0.00576
H         1.18998         0.92804         0.02402
H         1.23948        -0.96622         0.02392
4
step: 5  E_total = -475.363604337  
O        -0.62508         0.00158         0.00198
C         0.62930         0.00194        -0.00692
H         1.18592         0.92755         0.02869
H         1.24348        -0.97023         0.02881
4
step: 6  E_total = -475.363499567  
O        -0.62789         0.00176         0.00219
C         0.63285         0.00192        -0.00780
H         1.18277         0.92811         0.03290
H         1.24656        -0.97301         0.03244
4
step: 7  E_total = -475.365675120  
O        -0.63023         0.00179         0.00247
C         0.63591         0.00151        -0.00877
H         1.17929         0.93021         0.03632
H         1.24871        -0.97383         0.03612
4
step: 8  E_total = -475.358675056  
O        -0.63220         0.00179         0.00276
C         0.63865         0.00085        -0.00952
H         1.17781         0.93242         0.03924
H         1.24981        -0.97336         0.03882
4
step: 9  E_total = -475.349630160  
O        -0.63385         0.00184         0.00299
C         0.64103        -0.00012        -0.00988
H         1.17634         0.93617         0.04199
H         1.24868        -0.97060         0.04077
4
step: 10  E_total = -475.350034490  
O        -0.63510         0.00200         0.00317
C         0.64274        -0.00123        -0.01028
H         1.17607         0.94133         0.04366
H         1.24549        -0.96722         0.04288
