4
step: 1  E_total = -475.375003841  
O        -0.61339         0.00030         0.00043
C         0.61371         0.00052        -0.00172
H         1.20507         0.93627         0.00686
H         1.21833        -0.94724         0.00686
4
step: 2  E_total = -475.375621323  
O        -0.61655         0.00060         0.00084
C         0.61764         0.00098        -0.00342
H         1.20045         0.93269         0.01366
H         1.22643        -0.95395         0.01366
4
step: 3  E_total = -475.375944159  
O        -0.61964         0.00089         0.00125
C         0.62149         0.00135        -0.00508
H         1.19615         0.92953         0.02035
H         1.23383        -0.95977         0.02033
4
step: 4  E_total = -475.375113532  
O        -0.62258         0.00117         0.00165
C         0.62518         0.00158        -0.00671
H         1.19236         0.92707         0.02690
H         1.24029        -0.96445         0.02682
4
step: 5  E_total = -475.374394066  
O        -0.62531         0.00142         0.00204
C         0.62863         0.00165        -0.00828
H         1.18923         0.92552         0.03329
H         1.24562        -0.96776         0.03307
4
step: 6  E_total = -475.374135326  
O        -0.62778         0.00166         0.00241
C         0.63177         0.00152        -0.00980
H         1.18691         0.92508         0.03947
H         1.24969        -0.96953         0.03903
4
step: 7  E_total = -475.374085341  
O        -0.62992         0.00188         0.00277
C         0.63452         0.00117        -0.01125
H         1.18548         0.92586         0.04542
H         1.25240        -0.96966         0.04463
4
step: 8  E_total = -475.374236249  
O        -0.63170         0.00207         0.00310
C         0.63682         0.00062        -0.01260
H         1.18496         0.92788         0.05110
H         1.25374        -0.96813         0.04980
4
step: 9  E_total = -475.374368329  
O        -0.63308         0.00224         0.00340
C         0.63862        -0.00014        -0.01384
H         1.18533         0.93108         0.05645
H         1.25371        -0.96500         0.05449
4
step: 10  E_total = -475.374482462  
O        -0.63403         0.00238         0.00368
C         0.63991        -0.00106        -0.01498
H         1.18648         0.93531         0.06147
H         1.25239        -0.96040         0.05867
4
step: 11  E_total = -475.374463437  
O        -0.63454         0.00249         0.00392
C         0.64065        -0.00213        -0.01599
H         1.18826         0.94035         0.06610
H         1.24990        -0.95453         0.06232
4
step: 12  E_total = -475.374455720  
O        -0.63460         0.00258         0.00413
C         0.64084        -0.00329        -0.01689
H         1.19050         0.94593         0.07030
H         1.24639        -0.94762         0.06541
4
step: 13  E_total = -475.374543259  
O        -0.63421         0.00264         0.00431
C         0.64047        -0.00451        -0.01765
H         1.19301         0.95174         0.07403
H         1.24208        -0.93999         0.06794
4
step: 14  E_total = -475.374548681  
O        -0.63337         0.00269         0.00445
C         0.63954        -0.00572        -0.01827
H         1.19561         0.95747         0.07722
H         1.23721        -0.93199         0.06991
4
step: 15  E_total = -475.374646370  
O        -0.63209         0.00271         0.00455
C         0.63806        -0.00686        -0.01874
H         1.19808         0.96281         0.07982
H         1.23205        -0.92403         0.07131
4
step: 16  E_total = -475.374668124  
O        -0.63041         0.00271         0.00461
C         0.63607        -0.00788        -0.01906
H         1.20024         0.96750         0.08180
H         1.22690        -0.91653         0.07217
4
step: 17  E_total = -475.374562222  
O        -0.62835         0.00269         0.00463
C         0.63359        -0.00873        -0.01922
H         1.20194         0.97128         0.08313
H         1.22203        -0.90986         0.07252
4
step: 18  E_total = -475.374541830  
O        -0.62595         0.00265         0.00461
C         0.63067        -0.00937        -0.01924
H         1.20306         0.97395         0.08378
H         1.21770        -0.90439         0.07238
4
step: 19  E_total = -475.374545267  
O        -0.62327         0.00260         0.00455
C         0.62735        -0.00976        -0.01912
H         1.20351         0.97538         0.08373
H         1.21414        -0.90040         0.07177
4
step: 20  E_total = -475.374708975  
O        -0.62035         0.00254         0.00446
C         0.62372        -0.00987        -0.01884
H         1.20322         0.97547         0.08298
H         1.21150        -0.89810         0.07070
