4
step: 1  T=      504.336K  Ek=  0.260761678  Ep= -1.360431424  E_gap=    11.559033  Err=       0.0006557450687088  time_stamp= 1758753755.1412
O        -0.61378         0.00034         0.00048
C         0.61420         0.00058        -0.00194
H         1.20448         0.93581         0.00773
H         1.21942        -0.94817         0.00773
4
step: 2  T=      475.534K  Ek=  0.245870301  Ep= -1.346387499  E_gap=    11.529380  Err=       0.0004707312711984  time_stamp= 1758753755.2009
O        -0.61734         0.00068         0.00095
C         0.61860         0.00110        -0.00385
H         1.19930         0.93180         0.01539
H         1.22857        -0.95574         0.01538
4
step: 3  T=      427.618K  Ek=  0.221095547  Ep= -1.321380105  E_gap=    11.504252  Err=       0.0006622781133262  time_stamp= 1758753755.2887
O        -0.62079         0.00100         0.00142
C         0.62290         0.00152        -0.00573
H         1.19449         0.92830         0.02292
H         1.23694        -0.96236         0.02288
4
step: 4  T=      367.500K  Ek=  0.190012307  Ep= -1.289176870  E_gap=    11.479465  Err=       0.0008965276219551  time_stamp= 1758753755.3644
O        -0.62408         0.00131         0.00187
C         0.62702         0.00178        -0.00757
H         1.19026         0.92558         0.03031
H         1.24428        -0.96770         0.03019
4
step: 5  T=      301.891K  Ek=  0.156089956  Ep= -1.254879962  E_gap=    11.449277  Err=       0.0009054537553487  time_stamp= 1758753755.4245
O        -0.62713         0.00161         0.00232
C         0.63086         0.00185        -0.00936
H         1.18680         0.92392         0.03752
H         1.25036        -0.97152         0.03722
4
step: 6  T=      238.240K  Ek=  0.123179402  Ep= -1.221743417  E_gap=    11.414997  Err=       0.0005970163891000  time_stamp= 1758753755.4847
O        -0.62987         0.00188         0.00274
C         0.63433         0.00171        -0.01107
H         1.18425         0.92352         0.04451
H         1.25504        -0.97361         0.04392
4
step: 7  T=      184.002K  Ek=  0.095136140  Ep= -1.193923411  E_gap=    11.386312  Err=       0.0005207921385546  time_stamp= 1758753755.5451
O        -0.63224         0.00212         0.00314
C         0.63735         0.00132        -0.01269
H         1.18273         0.92451         0.05124
H         1.25822        -0.97387         0.05018
4
step: 8  T=      144.296K  Ek=  0.074606973  Ep= -1.173484031  E_gap=    11.370409  Err=       0.0009067262291497  time_stamp= 1758753755.6045
O        -0.63421         0.00234         0.00351
C         0.63987         0.00069        -0.01421
H         1.18223         0.92690         0.05766
H         1.25987        -0.97228         0.05595
4
step: 9  T=      120.587K  Ek=  0.062348164  Ep= -1.161015532  E_gap=    11.362232  Err=       0.0005325292400301  time_stamp= 1758753755.6646
O        -0.63573         0.00253         0.00385
C         0.64185        -0.00015        -0.01561
H         1.18271         0.93060         0.06375
H         1.25999        -0.96890         0.06118
4
step: 10  T=      111.442K  Ek=  0.057619743  Ep= -1.156297118  E_gap=    11.350768  Err=       0.0008891652860340  time_stamp= 1758753755.7243
O        -0.63678         0.00268         0.00416
C         0.64325        -0.00119        -0.01690
H         1.18403         0.93543         0.06947
H         1.25865        -0.96385         0.06584
