4
step: 1  E_total = -475.374298852  
O        -0.61324         0.00034         0.00045
C         0.61369         0.00060        -0.00150
H         1.20533         0.93617         0.00610
H         1.21824        -0.94657         0.00678
4
step: 2  E_total = -475.369458108  
O        -0.61631         0.00088         0.00082
C         0.61789         0.00100        -0.00279
H         1.20066         0.93313         0.01249
H         1.22661        -0.95383         0.01305
4
step: 3  E_total = -475.377003655  
O        -0.61914         0.00123         0.00121
C         0.62186         0.00154        -0.00422
H         1.19391         0.93072         0.01790
H         1.23424        -0.95981         0.01856
4
step: 4  E_total = -475.382325037  
O        -0.62207         0.00136         0.00161
C         0.62562         0.00182        -0.00536
H         1.18900         0.92845         0.02282
H         1.23908        -0.96692         0.02271
4
step: 5  E_total = -475.357499857  
O        -0.62498         0.00164         0.00196
C         0.62957         0.00207        -0.00636
H         1.18452         0.92837         0.02682
H         1.24250        -0.97123         0.02708
4
step: 6  E_total = -475.356566876  
O        -0.62794         0.00180         0.00210
C         0.63331         0.00210        -0.00699
H         1.18096         0.92931         0.03027
H         1.24514        -0.97446         0.02981
4
step: 7  E_total = -475.359674256  
O        -0.63038         0.00175         0.00237
C         0.63655         0.00167        -0.00780
H         1.17656         0.93190         0.03275
H         1.24701        -0.97559         0.03281
4
step: 8  E_total = -475.346980794  
O        -0.63246         0.00167         0.00264
C         0.63951         0.00097        -0.00834
H         1.17456         0.93414         0.03468
H         1.24797        -0.97558         0.03462
4
step: 9  E_total = -475.333828579  
O        -0.63426         0.00167         0.00286
C         0.64221        -0.00009        -0.00839
H         1.17217         0.93807         0.03654
H         1.24633        -0.97302         0.03561
4
step: 10  E_total = -475.332772716  
O        -0.63569         0.00184         0.00302
C         0.64419        -0.00126        -0.00854
H         1.17111         0.94359         0.03706
H         1.24229        -0.97019         0.03709
