4
step: 1  E_total = -108.921391814  
B        -0.00062         0.00137        -0.00125
H         1.19136         0.00538         0.00286
H        -0.58382         1.02810         0.00352
H        -0.59882        -1.04438         0.00418
4
step: 2  E_total = -108.929093964  
B        -0.00167         0.00215        -0.00234
H         1.17884         0.00963         0.00627
H        -0.56670         1.02403         0.00835
H        -0.59611        -1.05664         0.00710
4
step: 3  E_total = -108.957475009  
B        -0.00232         0.00291        -0.00331
H         1.16353         0.01422         0.00932
H        -0.54998         1.01749         0.01199
H        -0.59151        -1.06616         0.00905
4
step: 4  E_total = -108.968795967  
B        -0.00271         0.00341        -0.00425
H         1.14714         0.01802         0.01229
H        -0.53281         1.01077         0.01513
H        -0.58613        -1.07075         0.01192
4
step: 5  E_total = -108.964413610  
B        -0.00315         0.00330        -0.00519
H         1.12883         0.02078         0.01448
H        -0.51489         1.00229         0.01598
H        -0.57972        -1.07162         0.01507
4
step: 6  E_total = -108.966330523  
B        -0.00366         0.00326        -0.00607
H         1.10842         0.02458         0.01777
H        -0.49813         0.99229         0.01673
H        -0.57056        -1.06913         0.01732
4
step: 7  E_total = -108.949851291  
B        -0.00423         0.00311        -0.00673
H         1.08739         0.02905         0.01851
H        -0.48136         0.98358         0.01820
H        -0.55920        -1.06331         0.01861
4
step: 8  E_total = -108.904843474  
B        -0.00499         0.00292        -0.00721
H         1.06710         0.03303         0.02025
H        -0.46398         0.97461         0.02005
H        -0.54713        -1.05483         0.01970
4
step: 9  E_total = -108.897626397  
B        -0.00611         0.00229        -0.00762
H         1.04789         0.03694         0.02055
H        -0.44643         0.96699         0.02088
H        -0.53405        -1.04372         0.02096
4
step: 10  E_total = -108.927779125  
B        -0.00754         0.00152        -0.00762
H         1.03328         0.04101         0.02072
H        -0.43256         0.95961         0.02197
H        -0.52069        -1.03123         0.02106
