4
step: 1  E_total = -475.374298852  
O        -0.61324         0.00034         0.00045
C         0.61369         0.00060        -0.00150
H         1.20533         0.93617         0.00610
H         1.21824        -0.94657         0.00678
4
step: 2  E_total = -475.370211021  
O        -0.61631         0.00088         0.00082
C         0.61789         0.00100        -0.00279
H         1.20066         0.93313         0.01249
H         1.22661        -0.95383         0.01305
4
step: 3  E_total = -475.377808144  
O        -0.61915         0.00123         0.00121
C         0.62188         0.00154        -0.00423
H         1.19389         0.93071         0.01791
H         1.23424        -0.95983         0.01857
4
step: 4  E_total = -475.382573276  
O        -0.62210         0.00136         0.00162
C         0.62567         0.00183        -0.00539
H         1.18891         0.92840         0.02290
H         1.23908        -0.96698         0.02279
4
step: 5  E_total = -475.357299002  
O        -0.62505         0.00164         0.00199
C         0.62969         0.00210        -0.00642
H         1.18429         0.92825         0.02703
H         1.24247        -0.97138         0.02728
4
step: 6  E_total = -475.356521713  
O        -0.62808         0.00180         0.00214
C         0.63355         0.00214        -0.00712
H         1.18050         0.92911         0.03068
H         1.24509        -0.97471         0.03021
4
step: 7  E_total = -475.360268163  
O        -0.63061         0.00176         0.00243
C         0.63693         0.00172        -0.00800
H         1.17581         0.93160         0.03343
H         1.24691        -0.97598         0.03346
4
step: 8  E_total = -475.347183855  
O        -0.63280         0.00168         0.00273
C         0.64007         0.00104        -0.00863
H         1.17346         0.93375         0.03569
H         1.24779        -0.97612         0.03558
4
step: 9  E_total = -475.333214670  
O        -0.63474         0.00169         0.00298
C         0.64299        -0.00001        -0.00878
H         1.17064         0.93762         0.03796
H         1.24605        -0.97375         0.03694
4
step: 10  E_total = -475.332212887  
O        -0.63633         0.00186         0.00318
C         0.64525        -0.00117        -0.00907
H         1.16904         0.94311         0.03897
H         1.24187        -0.97113         0.03888
