4
step: 1  T=      503.179K  Ek=  0.260163484  Ep= -1.360613758  E_gap=    11.559500  Err=       0.0006569899114769  time_stamp= 1758753755.8540
O        -0.61375         0.00032         0.00045
C         0.61415         0.00059        -0.00186
H         1.20457         0.93573         0.00731
H         1.21933        -0.94786         0.00765
4
step: 2  T=      487.240K  Ek=  0.251922803  Ep= -1.346047987  E_gap=    11.529088  Err=       0.0005471289018462  time_stamp= 1758753755.9126
O        -0.61737         0.00065         0.00082
C         0.61857         0.00115        -0.00362
H         1.19932         0.93174         0.01435
H         1.22931        -0.95574         0.01587
4
step: 3  T=      439.083K  Ek=  0.227023706  Ep= -1.320262866  E_gap=    11.503050  Err=       0.0006402595894099  time_stamp= 1758753755.9701
O        -0.62091         0.00107         0.00119
C         0.62301         0.00145        -0.00531
H         1.19413         0.92890         0.02146
H         1.23791        -0.96313         0.02289
4
step: 4  T=      367.251K  Ek=  0.189883254  Ep= -1.284997818  E_gap=    11.478660  Err=       0.0010859595160343  time_stamp= 1758753756.0288
O        -0.62414         0.00147         0.00162
C         0.62718         0.00167        -0.00694
H         1.18749         0.92689         0.02784
H         1.24604        -0.97020         0.02917
4
step: 5  T=      290.173K  Ek=  0.150030835  Ep= -1.249426879  E_gap=    11.450240  Err=       0.0015859770020960  time_stamp= 1758753756.0845
O        -0.62705         0.00178         0.00203
C         0.63106         0.00172        -0.00853
H         1.18153         0.92584         0.03406
H         1.25203        -0.97451         0.03530
4
step: 6  T=      218.900K  Ek=  0.113180141  Ep= -1.214221977  E_gap=    11.416809  Err=       0.0007644884065666  time_stamp= 1758753756.1431
O        -0.62977         0.00208         0.00240
C         0.63471         0.00161        -0.00992
H         1.17737         0.92654         0.03896
H         1.25581        -0.97871         0.04115
4
step: 7  T=      161.776K  Ek=  0.083644684  Ep= -1.185536071  E_gap=    11.390106  Err=       0.0006900080568928  time_stamp= 1758753756.2016
O        -0.63210         0.00227         0.00273
C         0.63790         0.00142        -0.01116
H         1.17481         0.92806         0.04410
H         1.25725        -0.98102         0.04559
4
step: 8  T=      139.595K  Ek=  0.072176414  Ep= -1.167020523  E_gap=    11.375969  Err=       0.0013998465911736  time_stamp= 1758753756.2600
O        -0.63415         0.00249         0.00309
C         0.64085         0.00076        -0.01224
H         1.17333         0.93182         0.04759
H         1.25632        -0.98036         0.04919
4
step: 9  T=      128.010K  Ek=  0.066186334  Ep= -1.154874741  E_gap=    11.368084  Err=       0.0006098320306209  time_stamp= 1758753756.3183
O        -0.63588         0.00260         0.00335
C         0.64338        -0.00005        -0.01324
H         1.17264         0.93691         0.05172
H         1.25416        -0.97765         0.05281
4
step: 10  T=      115.720K  Ek=  0.059832074  Ep= -1.148028678  E_gap=    11.355864  Err=       0.0011470528283707  time_stamp= 1758753756.3738
O        -0.63733         0.00278         0.00356
C         0.64559        -0.00111        -0.01404
H         1.17315         0.94245         0.05565
H         1.25053        -0.97333         0.05515
