4
step: 1  E_total = -475.375003827  
O        -0.61339         0.00030         0.00043
C         0.61371         0.00052        -0.00172
H         1.20507         0.93627         0.00686
H         1.21833        -0.94724         0.00686
4
step: 2  E_total = -475.375680650  
O        -0.61655         0.00060         0.00084
C         0.61764         0.00098        -0.00342
H         1.20045         0.93269         0.01366
H         1.22643        -0.95395         0.01366
4
step: 3  E_total = -475.375504540  
O        -0.61964         0.00089         0.00125
C         0.62149         0.00135        -0.00508
H         1.19614         0.92953         0.02036
H         1.23383        -0.95978         0.02033
4
step: 4  E_total = -475.374619444  
O        -0.62259         0.00117         0.00165
C         0.62519         0.00158        -0.00671
H         1.19234         0.92706         0.02692
H         1.24029        -0.96446         0.02683
4
step: 5  E_total = -475.374318871  
O        -0.62532         0.00143         0.00205
C         0.62865         0.00165        -0.00830
H         1.18921         0.92551         0.03331
H         1.24562        -0.96777         0.03309
4
step: 6  E_total = -475.374139172  
O        -0.62778         0.00166         0.00242
C         0.63178         0.00151        -0.00982
H         1.18688         0.92507         0.03950
H         1.24968        -0.96953         0.03905
4
step: 7  E_total = -475.374315816  
O        -0.62992         0.00188         0.00278
C         0.63453         0.00117        -0.01126
H         1.18546         0.92586         0.04545
H         1.25240        -0.96965         0.04464
4
step: 8  E_total = -475.374383014  
O        -0.63170         0.00207         0.00311
C         0.63682         0.00061        -0.01260
H         1.18495         0.92789         0.05112
H         1.25374        -0.96812         0.04979
4
step: 9  E_total = -475.374211900  
O        -0.63308         0.00224         0.00341
C         0.63863        -0.00014        -0.01385
H         1.18532         0.93110         0.05648
H         1.25371        -0.96500         0.05448
4
step: 10  E_total = -475.374216397  
O        -0.63404         0.00238         0.00368
C         0.63992        -0.00106        -0.01499
H         1.18646         0.93533         0.06151
H         1.25239        -0.96041         0.05867
